** sch_path: /foss/designs/my_design/projects/pll/full_pll/xschem_ngspice/full_pll_bgr.sch
**.subckt full_pll_bgr
VDD VDD GND 1.8
x1 VDD V_OSC V_CONT GND current_starved_VCO10
V3 F_REF GND sin(0.9 0.9 20Meg)
x3 F_REF_INV_2 V_OUT120_INV_2 VDD UP_PFD DOWN_PFD GND phase_frequency_detector
x4 V_CONT VDD GND UP_PFD DOWN_PFD I_IN charge_pump7
XC2 V_CONT GND sky130_fd_pr__cap_mim_m3_1 W=60 L=11.6 MF=1 m=1
XC1 net1 GND sky130_fd_pr__cap_mim_m3_1 W=60 L=59.5 MF=1 m=1
XR1 net1 V_CONT GND sky130_fd_pr__res_xhigh_po_0p35 L=8.14 mult=1 m=1
x9 VDD F_REF F_REF_INV GND inverter
x5 VDD F_REF_INV F_REF_INV_2 GND inverter
x6 VDD V_OUT120_INV V_OUT120_INV_2 GND inverter
x7 VDD V_OUT120 V_OUT120_INV GND inverter
x2 VDD V_OUT120 V_OSC GND divide_by_120_6
x8 VDD I_IN GND bgr_dummy
**** begin user architecture code



.include /foss/pdks/sky130A/libs.ref/sky130_fd_sc_hd/spice/sky130_fd_sc_hd.spice

.option method=gear
.option wnflag=1
*.option savecurrents
*.option trtol=1
*.option abstol=1e-13

.ic v(v_cont)=0

.save
+v(x2.v_out2)
+v(x2.v_out4)
+v(x2.v_out8)
+v(x2.v_out24)
+v(x4.x)
+v(x4.opamp_out)
+v(v_out120_inv)
+v(f_ref_inv)
+v(v_out120_inv_2)
+v(f_ref_inv_2)
+i(x4.vmeas2)
+i(x4.vmeas3)
+@m.x8.xm50.msky130_fd_pr__pfet_01v8[id]

.control
    save v(v_cont) v(v_osc)
    * tran 2p 9u
    tran 50p 3u
    remzerovec
    write full_pll_bgr.raw
    * write full_pll_bgr_2.raw
    linearize v(v_cont) v(v_osc)
    * wrdata /foss/designs/my_design/projects/pll/full_pll/xschem_ngspice/full_pll_bgr.txt v(v_osc)
    wrdata /foss/designs/my_design/projects/pll/full_pll/xschem_ngspice/full_pll_bgr.txt v(v_osc)
    set appendwrite
 .endc



.lib /foss/pdks/sky130A/libs.tech/combined/sky130.lib.spice tt
**** end user architecture code
**.ends

* expanding   symbol:  /foss/designs/my_design/projects/pll/vco/xschem_ngspice/current_starved_VCO10.sym # of pins=4
** sym_path: /foss/designs/my_design/projects/pll/vco/xschem_ngspice/current_starved_VCO10.sym
** sch_path: /foss/designs/my_design/projects/pll/vco/xschem_ngspice/current_starved_VCO10.sch
.subckt current_starved_VCO10 VDDA V_OSC V_CONT GNDA
*.opin V_OSC
*.ipin VDDA
*.ipin GNDA
*.ipin V_CONT
XM21 net1 V_OSC v3 GNDA sky130_fd_pr__nfet_01v8 L=0.21 W=0.43 nf=1 ad='int((nf+1)/2) * W/nf * 0.29' as='int((nf+2)/2) * W/nf * 0.29'
+ pd='2*int((nf+1)/2) * (W/nf + 0.29)' ps='2*int((nf+2)/2) * (W/nf + 0.29)' nrd='0.29 / W' nrs='0.29 / W' sa=0 sb=0 sd=0 mult=1 m=1
XM22 net1 V_OSC v2 VDDA sky130_fd_pr__pfet_01v8 L=0.21 W=0.43 nf=1 ad='int((nf+1)/2) * W/nf * 0.29' as='int((nf+2)/2) * W/nf * 0.29'
+ pd='2*int((nf+1)/2) * (W/nf + 0.29)' ps='2*int((nf+2)/2) * (W/nf + 0.29)' nrd='0.29 / W' nrs='0.29 / W' sa=0 sb=0 sd=0 mult=2 m=2
XM23 net2 net1 net4 GNDA sky130_fd_pr__nfet_01v8 L=0.21 W=0.43 nf=1 ad='int((nf+1)/2) * W/nf * 0.29' as='int((nf+2)/2) * W/nf * 0.29'
+ pd='2*int((nf+1)/2) * (W/nf + 0.29)' ps='2*int((nf+2)/2) * (W/nf + 0.29)' nrd='0.29 / W' nrs='0.29 / W' sa=0 sb=0 sd=0 mult=1 m=1
XM24 net2 net1 net5 VDDA sky130_fd_pr__pfet_01v8 L=0.21 W=0.43 nf=1 ad='int((nf+1)/2) * W/nf * 0.29' as='int((nf+2)/2) * W/nf * 0.29'
+ pd='2*int((nf+1)/2) * (W/nf + 0.29)' ps='2*int((nf+2)/2) * (W/nf + 0.29)' nrd='0.29 / W' nrs='0.29 / W' sa=0 sb=0 sd=0 mult=2 m=2
XM25 V_OSC net2 net3 GNDA sky130_fd_pr__nfet_01v8 L=0.21 W=0.43 nf=1 ad='int((nf+1)/2) * W/nf * 0.29' as='int((nf+2)/2) * W/nf * 0.29'
+ pd='2*int((nf+1)/2) * (W/nf + 0.29)' ps='2*int((nf+2)/2) * (W/nf + 0.29)' nrd='0.29 / W' nrs='0.29 / W' sa=0 sb=0 sd=0 mult=1 m=1
XM26 V_OSC net2 net6 VDDA sky130_fd_pr__pfet_01v8 L=0.21 W=0.43 nf=1 ad='int((nf+1)/2) * W/nf * 0.29' as='int((nf+2)/2) * W/nf * 0.29'
+ pd='2*int((nf+1)/2) * (W/nf + 0.29)' ps='2*int((nf+2)/2) * (W/nf + 0.29)' nrd='0.29 / W' nrs='0.29 / W' sa=0 sb=0 sd=0 mult=2 m=2
XM27 v3 V_CONT GNDA GNDA sky130_fd_pr__nfet_01v8 L=0.15 W=1.0 nf=1 ad='int((nf+1)/2) * W/nf * 0.29' as='int((nf+2)/2) * W/nf * 0.29'
+ pd='2*int((nf+1)/2) * (W/nf + 0.29)' ps='2*int((nf+2)/2) * (W/nf + 0.29)' nrd='0.29 / W' nrs='0.29 / W' sa=0 sb=0 sd=0 mult=1 m=1
XM28 net4 V_CONT GNDA GNDA sky130_fd_pr__nfet_01v8 L=0.15 W=1.0 nf=1 ad='int((nf+1)/2) * W/nf * 0.29' as='int((nf+2)/2) * W/nf * 0.29'
+ pd='2*int((nf+1)/2) * (W/nf + 0.29)' ps='2*int((nf+2)/2) * (W/nf + 0.29)' nrd='0.29 / W' nrs='0.29 / W' sa=0 sb=0 sd=0 mult=1 m=1
XM29 net3 V_CONT GNDA GNDA sky130_fd_pr__nfet_01v8 L=0.15 W=1.0 nf=1 ad='int((nf+1)/2) * W/nf * 0.29' as='int((nf+2)/2) * W/nf * 0.29'
+ pd='2*int((nf+1)/2) * (W/nf + 0.29)' ps='2*int((nf+2)/2) * (W/nf + 0.29)' nrd='0.29 / W' nrs='0.29 / W' sa=0 sb=0 sd=0 mult=1 m=1
XM30 v2 v1 VDDA VDDA sky130_fd_pr__pfet_01v8 L=1.5 W=2 nf=1 ad='int((nf+1)/2) * W/nf * 0.29' as='int((nf+2)/2) * W/nf * 0.29' pd='2*int((nf+1)/2) * (W/nf + 0.29)'
+ ps='2*int((nf+2)/2) * (W/nf + 0.29)' nrd='0.29 / W' nrs='0.29 / W' sa=0 sb=0 sd=0 mult=1 m=1
XM31 net5 v1 VDDA VDDA sky130_fd_pr__pfet_01v8 L=1.5 W=2 nf=1 ad='int((nf+1)/2) * W/nf * 0.29' as='int((nf+2)/2) * W/nf * 0.29' pd='2*int((nf+1)/2) * (W/nf + 0.29)'
+ ps='2*int((nf+2)/2) * (W/nf + 0.29)' nrd='0.29 / W' nrs='0.29 / W' sa=0 sb=0 sd=0 mult=1 m=1
XM32 net6 v1 VDDA VDDA sky130_fd_pr__pfet_01v8 L=1.5 W=2 nf=1 ad='int((nf+1)/2) * W/nf * 0.29' as='int((nf+2)/2) * W/nf * 0.29' pd='2*int((nf+1)/2) * (W/nf + 0.29)'
+ ps='2*int((nf+2)/2) * (W/nf + 0.29)' nrd='0.29 / W' nrs='0.29 / W' sa=0 sb=0 sd=0 mult=1 m=1
XM33 v3 VDDA GNDA GNDA sky130_fd_pr__nfet_01v8 L=0.15 W=0.43 nf=1 ad='int((nf+1)/2) * W/nf * 0.29' as='int((nf+2)/2) * W/nf * 0.29'
+ pd='2*int((nf+1)/2) * (W/nf + 0.29)' ps='2*int((nf+2)/2) * (W/nf + 0.29)' nrd='0.29 / W' nrs='0.29 / W' sa=0 sb=0 sd=0 mult=1 m=1
XM34 net4 VDDA GNDA GNDA sky130_fd_pr__nfet_01v8 L=0.15 W=0.43 nf=1 ad='int((nf+1)/2) * W/nf * 0.29' as='int((nf+2)/2) * W/nf * 0.29'
+ pd='2*int((nf+1)/2) * (W/nf + 0.29)' ps='2*int((nf+2)/2) * (W/nf + 0.29)' nrd='0.29 / W' nrs='0.29 / W' sa=0 sb=0 sd=0 mult=1 m=1
XM35 net3 VDDA GNDA GNDA sky130_fd_pr__nfet_01v8 L=0.15 W=0.43 nf=1 ad='int((nf+1)/2) * W/nf * 0.29' as='int((nf+2)/2) * W/nf * 0.29'
+ pd='2*int((nf+1)/2) * (W/nf + 0.29)' ps='2*int((nf+2)/2) * (W/nf + 0.29)' nrd='0.29 / W' nrs='0.29 / W' sa=0 sb=0 sd=0 mult=1 m=1
XM36 v2 GNDA VDDA VDDA sky130_fd_pr__pfet_01v8 L=0.15 W=0.86 nf=2 ad='int((nf+1)/2) * W/nf * 0.29' as='int((nf+2)/2) * W/nf * 0.29'
+ pd='2*int((nf+1)/2) * (W/nf + 0.29)' ps='2*int((nf+2)/2) * (W/nf + 0.29)' nrd='0.29 / W' nrs='0.29 / W' sa=0 sb=0 sd=0 mult=1 m=1
XM37 net5 GNDA VDDA VDDA sky130_fd_pr__pfet_01v8 L=0.15 W=0.86 nf=2 ad='int((nf+1)/2) * W/nf * 0.29' as='int((nf+2)/2) * W/nf * 0.29'
+ pd='2*int((nf+1)/2) * (W/nf + 0.29)' ps='2*int((nf+2)/2) * (W/nf + 0.29)' nrd='0.29 / W' nrs='0.29 / W' sa=0 sb=0 sd=0 mult=1 m=1
XM38 net6 GNDA VDDA VDDA sky130_fd_pr__pfet_01v8 L=0.15 W=0.86 nf=2 ad='int((nf+1)/2) * W/nf * 0.29' as='int((nf+2)/2) * W/nf * 0.29'
+ pd='2*int((nf+1)/2) * (W/nf + 0.29)' ps='2*int((nf+2)/2) * (W/nf + 0.29)' nrd='0.29 / W' nrs='0.29 / W' sa=0 sb=0 sd=0 mult=1 m=1
XM39 v1 v1 VDDA VDDA sky130_fd_pr__pfet_01v8 L=1.5 W=2 nf=1 ad='int((nf+1)/2) * W/nf * 0.29' as='int((nf+2)/2) * W/nf * 0.29' pd='2*int((nf+1)/2) * (W/nf + 0.29)'
+ ps='2*int((nf+2)/2) * (W/nf + 0.29)' nrd='0.29 / W' nrs='0.29 / W' sa=0 sb=0 sd=0 mult=1 m=1
XM40 v1 V_CONT GNDA GNDA sky130_fd_pr__nfet_01v8 L=0.15 W=1.0 nf=1 ad='int((nf+1)/2) * W/nf * 0.29' as='int((nf+2)/2) * W/nf * 0.29'
+ pd='2*int((nf+1)/2) * (W/nf + 0.29)' ps='2*int((nf+2)/2) * (W/nf + 0.29)' nrd='0.29 / W' nrs='0.29 / W' sa=0 sb=0 sd=0 mult=1 m=1
.ends


* expanding   symbol:  /foss/designs/my_design/projects/pll/pfd/xschem_ngspice/phase_frequency_detector.sym # of pins=6
** sym_path: /foss/designs/my_design/projects/pll/pfd/xschem_ngspice/phase_frequency_detector.sym
** sch_path: /foss/designs/my_design/projects/pll/pfd/xschem_ngspice/phase_frequency_detector.sch
.subckt phase_frequency_detector F_REF F_VCO VDDA QA QB GNDA
*.ipin F_REF
*.opin QA
*.ipin F_VCO
*.opin QB
*.ipin VDDA
*.ipin GNDA
x1 F_REF QA GNDA GNDA VDDA VDDA QA_b sky130_fd_sc_hd__nor2_1
x2 E QA_b GNDA GNDA VDDA VDDA QA sky130_fd_sc_hd__nor2_1
x3 QA_b E_b GNDA GNDA VDDA VDDA E sky130_fd_sc_hd__nor2_1
x4 Reset E GNDA GNDA VDDA VDDA E_b sky130_fd_sc_hd__nor2_1
x5 F_VCO QB GNDA GNDA VDDA VDDA QB_b sky130_fd_sc_hd__nor2_1
x6 F QB_b GNDA GNDA VDDA VDDA QB sky130_fd_sc_hd__nor2_1
x7 QB_b F_b GNDA GNDA VDDA VDDA F sky130_fd_sc_hd__nor2_1
x8 Reset F GNDA GNDA VDDA VDDA F_b sky130_fd_sc_hd__nor2_1
x9 QB QA GNDA GNDA VDDA VDDA before_Reset sky130_fd_sc_hd__nand2_1
x10 before_Reset GNDA GNDA VDDA VDDA net1 sky130_fd_sc_hd__inv_1
x11 net1 GNDA GNDA VDDA VDDA net2 sky130_fd_sc_hd__inv_1
x12 net2 GNDA GNDA VDDA VDDA net3 sky130_fd_sc_hd__inv_1
x13 net3 GNDA GNDA VDDA VDDA net4 sky130_fd_sc_hd__inv_1
x14 net4 GNDA GNDA VDDA VDDA Reset sky130_fd_sc_hd__inv_1
.ends


* expanding   symbol:  /foss/designs/my_design/projects/pll/charge_pump/xschem_ngspice/charge_pump7.sym # of pins=6
** sym_path: /foss/designs/my_design/projects/pll/charge_pump/xschem_ngspice/charge_pump7.sym
** sch_path: /foss/designs/my_design/projects/pll/charge_pump/xschem_ngspice/charge_pump7.sch
.subckt charge_pump7 V_OUT VDDA GNDA UP_PFD DOWN_PFD I_IN
*.ipin VDDA
*.opin V_OUT
*.ipin GNDA
*.ipin UP_PFD
*.ipin DOWN_PFD
*.ipin I_IN
XM12 DOWN_b GNDA net1 VDDA sky130_fd_pr__pfet_01v8 L=0.15 W=2 nf=2 ad='int((nf+1)/2) * W/nf * 0.29' as='int((nf+2)/2) * W/nf * 0.29'
+ pd='2*int((nf+1)/2) * (W/nf + 0.29)' ps='2*int((nf+2)/2) * (W/nf + 0.29)' nrd='0.29 / W' nrs='0.29 / W' sa=0 sb=0 sd=0 mult=1 m=1
XM13 DOWN_b VDDA net1 GNDA sky130_fd_pr__nfet_01v8 L=0.15 W=1 nf=1 ad='int((nf+1)/2) * W/nf * 0.29' as='int((nf+2)/2) * W/nf * 0.29'
+ pd='2*int((nf+1)/2) * (W/nf + 0.29)' ps='2*int((nf+2)/2) * (W/nf + 0.29)' nrd='0.29 / W' nrs='0.29 / W' sa=0 sb=0 sd=0 mult=1 m=1
XM10 net1 DOWN_PFD VDDA VDDA sky130_fd_pr__pfet_01v8 L=0.15 W=2 nf=2 ad='int((nf+1)/2) * W/nf * 0.29' as='int((nf+2)/2) * W/nf * 0.29'
+ pd='2*int((nf+1)/2) * (W/nf + 0.29)' ps='2*int((nf+2)/2) * (W/nf + 0.29)' nrd='0.29 / W' nrs='0.29 / W' sa=0 sb=0 sd=0 mult=1 m=1
XM11 GNDA DOWN_PFD net1 GNDA sky130_fd_pr__nfet_01v8 L=0.15 W=1 nf=1 ad='int((nf+1)/2) * W/nf * 0.29' as='int((nf+2)/2) * W/nf * 0.29'
+ pd='2*int((nf+1)/2) * (W/nf + 0.29)' ps='2*int((nf+2)/2) * (W/nf + 0.29)' nrd='0.29 / W' nrs='0.29 / W' sa=0 sb=0 sd=0 mult=1 m=1
XM14 UP_PFD_b UP_PFD VDDA VDDA sky130_fd_pr__pfet_01v8 L=0.15 W=2 nf=2 ad='int((nf+1)/2) * W/nf * 0.29' as='int((nf+2)/2) * W/nf * 0.29'
+ pd='2*int((nf+1)/2) * (W/nf + 0.29)' ps='2*int((nf+2)/2) * (W/nf + 0.29)' nrd='0.29 / W' nrs='0.29 / W' sa=0 sb=0 sd=0 mult=1 m=1
XM15 GNDA UP_PFD UP_PFD_b GNDA sky130_fd_pr__nfet_01v8 L=0.15 W=1 nf=1 ad='int((nf+1)/2) * W/nf * 0.29' as='int((nf+2)/2) * W/nf * 0.29'
+ pd='2*int((nf+1)/2) * (W/nf + 0.29)' ps='2*int((nf+2)/2) * (W/nf + 0.29)' nrd='0.29 / W' nrs='0.29 / W' sa=0 sb=0 sd=0 mult=1 m=1
XM16 UP UP_PFD_b VDDA VDDA sky130_fd_pr__pfet_01v8 L=0.15 W=2 nf=2 ad='int((nf+1)/2) * W/nf * 0.29' as='int((nf+2)/2) * W/nf * 0.29'
+ pd='2*int((nf+1)/2) * (W/nf + 0.29)' ps='2*int((nf+2)/2) * (W/nf + 0.29)' nrd='0.29 / W' nrs='0.29 / W' sa=0 sb=0 sd=0 mult=1 m=1
XM17 GNDA UP_PFD_b UP GNDA sky130_fd_pr__nfet_01v8 L=0.15 W=1 nf=1 ad='int((nf+1)/2) * W/nf * 0.29' as='int((nf+2)/2) * W/nf * 0.29'
+ pd='2*int((nf+1)/2) * (W/nf + 0.29)' ps='2*int((nf+2)/2) * (W/nf + 0.29)' nrd='0.29 / W' nrs='0.29 / W' sa=0 sb=0 sd=0 mult=1 m=1
XM22 net2 net2 GNDA GNDA sky130_fd_pr__nfet_01v8 L=0.6 W=4 nf=1 ad='int((nf+1)/2) * W/nf * 0.29' as='int((nf+2)/2) * W/nf * 0.29' pd='2*int((nf+1)/2) * (W/nf + 0.29)'
+ ps='2*int((nf+2)/2) * (W/nf + 0.29)' nrd='0.29 / W' nrs='0.29 / W' sa=0 sb=0 sd=0 mult=1 m=1
XM23 net4 net2 GNDA GNDA sky130_fd_pr__nfet_01v8 L=0.6 W=4 nf=1 ad='int((nf+1)/2) * W/nf * 0.29' as='int((nf+2)/2) * W/nf * 0.29' pd='2*int((nf+1)/2) * (W/nf + 0.29)'
+ ps='2*int((nf+2)/2) * (W/nf + 0.29)' nrd='0.29 / W' nrs='0.29 / W' sa=0 sb=0 sd=0 mult=1 m=1
XM24 VDDA opamp_out x VDDA sky130_fd_pr__pfet_01v8 L=0.6 W=8 nf=8 ad='int((nf+1)/2) * W/nf * 0.29' as='int((nf+2)/2) * W/nf * 0.29'
+ pd='2*int((nf+1)/2) * (W/nf + 0.29)' ps='2*int((nf+2)/2) * (W/nf + 0.29)' nrd='0.29 / W' nrs='0.29 / W' sa=0 sb=0 sd=0 mult=1 m=1
XM25 UP_input UP_b opamp_out VDDA sky130_fd_pr__pfet_01v8 L=0.15 W=2 nf=2 ad='int((nf+1)/2) * W/nf * 0.29' as='int((nf+2)/2) * W/nf * 0.29'
+ pd='2*int((nf+1)/2) * (W/nf + 0.29)' ps='2*int((nf+2)/2) * (W/nf + 0.29)' nrd='0.29 / W' nrs='0.29 / W' sa=0 sb=0 sd=0 mult=1 m=1
XM26 UP_input UP VDDA VDDA sky130_fd_pr__pfet_01v8 L=0.15 W=2 nf=2 ad='int((nf+1)/2) * W/nf * 0.29' as='int((nf+2)/2) * W/nf * 0.29'
+ pd='2*int((nf+1)/2) * (W/nf + 0.29)' ps='2*int((nf+2)/2) * (W/nf + 0.29)' nrd='0.29 / W' nrs='0.29 / W' sa=0 sb=0 sd=0 mult=1 m=1
XM27 net3 UP_input VDDA VDDA sky130_fd_pr__pfet_01v8 L=0.6 W=8 nf=8 ad='int((nf+1)/2) * W/nf * 0.29' as='int((nf+2)/2) * W/nf * 0.29'
+ pd='2*int((nf+1)/2) * (W/nf + 0.29)' ps='2*int((nf+2)/2) * (W/nf + 0.29)' nrd='0.29 / W' nrs='0.29 / W' sa=0 sb=0 sd=0 mult=1 m=1
XM28 DOWN_input DOWN net2 GNDA sky130_fd_pr__nfet_01v8 L=0.15 W=1 nf=1 ad='int((nf+1)/2) * W/nf * 0.29' as='int((nf+2)/2) * W/nf * 0.29'
+ pd='2*int((nf+1)/2) * (W/nf + 0.29)' ps='2*int((nf+2)/2) * (W/nf + 0.29)' nrd='0.29 / W' nrs='0.29 / W' sa=0 sb=0 sd=0 mult=1 m=1
XM29 DOWN_input DOWN_b GNDA GNDA sky130_fd_pr__nfet_01v8 L=0.15 W=1 nf=1 ad='int((nf+1)/2) * W/nf * 0.29' as='int((nf+2)/2) * W/nf * 0.29'
+ pd='2*int((nf+1)/2) * (W/nf + 0.29)' ps='2*int((nf+2)/2) * (W/nf + 0.29)' nrd='0.29 / W' nrs='0.29 / W' sa=0 sb=0 sd=0 mult=1 m=1
XM30 net5 DOWN_input GNDA GNDA sky130_fd_pr__nfet_01v8 L=0.6 W=4 nf=1 ad='int((nf+1)/2) * W/nf * 0.29' as='int((nf+2)/2) * W/nf * 0.29'
+ pd='2*int((nf+1)/2) * (W/nf + 0.29)' ps='2*int((nf+2)/2) * (W/nf + 0.29)' nrd='0.29 / W' nrs='0.29 / W' sa=0 sb=0 sd=0 mult=1 m=1
XM31 DOWN DOWN_b VDDA VDDA sky130_fd_pr__pfet_01v8 L=0.15 W=2 nf=2 ad='int((nf+1)/2) * W/nf * 0.29' as='int((nf+2)/2) * W/nf * 0.29'
+ pd='2*int((nf+1)/2) * (W/nf + 0.29)' ps='2*int((nf+2)/2) * (W/nf + 0.29)' nrd='0.29 / W' nrs='0.29 / W' sa=0 sb=0 sd=0 mult=1 m=1
XM32 GNDA DOWN_b DOWN GNDA sky130_fd_pr__nfet_01v8 L=0.15 W=1 nf=1 ad='int((nf+1)/2) * W/nf * 0.29' as='int((nf+2)/2) * W/nf * 0.29'
+ pd='2*int((nf+1)/2) * (W/nf + 0.29)' ps='2*int((nf+2)/2) * (W/nf + 0.29)' nrd='0.29 / W' nrs='0.29 / W' sa=0 sb=0 sd=0 mult=1 m=1
XM33 UP_b UP VDDA VDDA sky130_fd_pr__pfet_01v8 L=0.15 W=2 nf=2 ad='int((nf+1)/2) * W/nf * 0.29' as='int((nf+2)/2) * W/nf * 0.29' pd='2*int((nf+1)/2) * (W/nf + 0.29)'
+ ps='2*int((nf+2)/2) * (W/nf + 0.29)' nrd='0.29 / W' nrs='0.29 / W' sa=0 sb=0 sd=0 mult=1 m=1
XM34 GNDA UP UP_b GNDA sky130_fd_pr__nfet_01v8 L=0.15 W=1 nf=1 ad='int((nf+1)/2) * W/nf * 0.29' as='int((nf+2)/2) * W/nf * 0.29' pd='2*int((nf+1)/2) * (W/nf + 0.29)'
+ ps='2*int((nf+2)/2) * (W/nf + 0.29)' nrd='0.29 / W' nrs='0.29 / W' sa=0 sb=0 sd=0 mult=1 m=1
Vmeas I_IN net2 0
.save i(vmeas)
Vmeas1 x net4 0
.save i(vmeas1)
Vmeas2 net3 V_OUT 0
.save i(vmeas2)
Vmeas3 V_OUT net5 0
.save i(vmeas3)
XM35 UP_input UP opamp_out GNDA sky130_fd_pr__nfet_01v8 L=0.15 W=1 nf=1 ad='int((nf+1)/2) * W/nf * 0.29' as='int((nf+2)/2) * W/nf * 0.29'
+ pd='2*int((nf+1)/2) * (W/nf + 0.29)' ps='2*int((nf+2)/2) * (W/nf + 0.29)' nrd='0.29 / W' nrs='0.29 / W' sa=0 sb=0 sd=0 mult=1 m=1
XM36 DOWN_input DOWN_b net2 VDDA sky130_fd_pr__pfet_01v8 L=0.15 W=2 nf=2 ad='int((nf+1)/2) * W/nf * 0.29' as='int((nf+2)/2) * W/nf * 0.29'
+ pd='2*int((nf+1)/2) * (W/nf + 0.29)' ps='2*int((nf+2)/2) * (W/nf + 0.29)' nrd='0.29 / W' nrs='0.29 / W' sa=0 sb=0 sd=0 mult=1 m=1
XC1 UP_input UP_b sky130_fd_pr__cap_mim_m3_1 W=6 L=4.2 MF=1 m=1
XC2 DOWN DOWN_input sky130_fd_pr__cap_mim_m3_1 W=2.6 L=2.6 MF=1 m=1
x1 VDDA x V_OUT opamp_out GNDA rail_to_rail_opamp6
.ends


* expanding   symbol:  /foss/designs/my_design/projects/pll/divider/xschem_ngspice/inverter.sym # of pins=4
** sym_path: /foss/designs/my_design/projects/pll/divider/xschem_ngspice/inverter.sym
** sch_path: /foss/designs/my_design/projects/pll/divider/xschem_ngspice/inverter.sch
.subckt inverter VDDA VIN VOUT GNDA
*.ipin VIN
*.ipin VDDA
*.ipin GNDA
*.opin VOUT
XM31 VOUT VIN VDDA VDDA sky130_fd_pr__pfet_01v8 L=0.15 W=2 nf=2 ad='int((nf+1)/2) * W/nf * 0.29' as='int((nf+2)/2) * W/nf * 0.29' pd='2*int((nf+1)/2) * (W/nf + 0.29)'
+ ps='2*int((nf+2)/2) * (W/nf + 0.29)' nrd='0.29 / W' nrs='0.29 / W' sa=0 sb=0 sd=0 mult=1 m=1
XM32 VOUT VIN GNDA GNDA sky130_fd_pr__nfet_01v8 L=0.15 W=1 nf=1 ad='int((nf+1)/2) * W/nf * 0.29' as='int((nf+2)/2) * W/nf * 0.29' pd='2*int((nf+1)/2) * (W/nf + 0.29)'
+ ps='2*int((nf+2)/2) * (W/nf + 0.29)' nrd='0.29 / W' nrs='0.29 / W' sa=0 sb=0 sd=0 mult=1 m=1
.ends


* expanding   symbol:  /foss/designs/my_design/projects/pll/divider/xschem_ngspice/divide_by_120/divide_by_120_6.sym # of pins=4
** sym_path: /foss/designs/my_design/projects/pll/divider/xschem_ngspice/divide_by_120/divide_by_120_6.sym
** sch_path: /foss/designs/my_design/projects/pll/divider/xschem_ngspice/divide_by_120/divide_by_120_6.sch
.subckt divide_by_120_6 VDDA V_OUT120 V_OSC GNDA
*.opin V_OUT120
*.ipin V_OSC
*.ipin GNDA
*.ipin VDDA
x6 V_OUT120 V_OUT24 VDDA GNDA TSPC_FF_ratioed_divide5_2
x1 V_OUT2 V_OSC VDDA GNDA TSPC_FF_ratioed_divide2_2
x2 V_OUT4 V_OUT2 VDDA GNDA TSPC_FF_ratioed_divide2_2
x3 V_OUT8 V_OUT4 VDDA GNDA TSPC_FF_ratioed_divide2_2
x4 V_OUT24 V_OUT8 VDDA GNDA TSPC_FF_ratioed_divide3_2
.ends


* expanding   symbol:  /foss/designs/my_design/projects/pll/full_pll/xschem_ngspice/bgr_dummy.sym # of pins=3
** sym_path: /foss/designs/my_design/projects/pll/full_pll/xschem_ngspice/bgr_dummy.sym
** sch_path: /foss/designs/my_design/projects/pll/full_pll/xschem_ngspice/bgr_dummy.sch
.subckt bgr_dummy VDDA CURRENT_OUTPUT GNDA
*.iopin VDDA
*.iopin GNDA
*.opin CURRENT_OUTPUT
XM45 V1 V_TOP VDDA VDDA sky130_fd_pr__pfet_01v8 L=0.5 W=12 nf=4 ad='int((nf+1)/2) * W/nf * 0.29' as='int((nf+2)/2) * W/nf * 0.29' pd='2*int((nf+1)/2) * (W/nf + 0.29)'
+ ps='2*int((nf+2)/2) * (W/nf + 0.29)' nrd='0.29 / W' nrs='0.29 / W' sa=0 sb=0 sd=0 mult=1 m=1
XR4 GNDA V1 GNDA sky130_fd_pr__res_xhigh_po_0p35 L=10 mult=1 m=1
XR5 GNDA V_CUR_REF_REG GNDA sky130_fd_pr__res_xhigh_po_0p35 L=1 mult=1 m=1
XM50 V_CUR_REF_REG V2 VDDA VDDA sky130_fd_pr__pfet_01v8 L=0.15 W=10 nf=1 ad='int((nf+1)/2) * W/nf * 0.29' as='int((nf+2)/2) * W/nf * 0.29'
+ pd='2*int((nf+1)/2) * (W/nf + 0.29)' ps='2*int((nf+2)/2) * (W/nf + 0.29)' nrd='0.29 / W' nrs='0.29 / W' sa=0 sb=0 sd=0 mult=1 m=1
XC1 V_TOP VDDA sky130_fd_pr__cap_mim_m3_1 W=2 L=2 MF=20 m=20
XQ1 GNDA GNDA bgr_Vin- sky130_fd_pr__pnp_05v5_W3p40L3p40 m=1 mult=1
XQ2 GNDA GNDA Vbe2 sky130_fd_pr__pnp_05v5_W3p40L3p40 m=8 mult=8
XM51 bgr_Vin- V_TOP VDDA VDDA sky130_fd_pr__pfet_01v8 L=0.5 W=12 nf=4 ad='int((nf+1)/2) * W/nf * 0.29' as='int((nf+2)/2) * W/nf * 0.29'
+ pd='2*int((nf+1)/2) * (W/nf + 0.29)' ps='2*int((nf+2)/2) * (W/nf + 0.29)' nrd='0.29 / W' nrs='0.29 / W' sa=0 sb=0 sd=0 mult=1 m=1
XM53 bgr_Vin+ V_TOP VDDA VDDA sky130_fd_pr__pfet_01v8 L=0.5 W=12 nf=4 ad='int((nf+1)/2) * W/nf * 0.29' as='int((nf+2)/2) * W/nf * 0.29'
+ pd='2*int((nf+1)/2) * (W/nf + 0.29)' ps='2*int((nf+2)/2) * (W/nf + 0.29)' nrd='0.29 / W' nrs='0.29 / W' sa=0 sb=0 sd=0 mult=1 m=1
XR3 Vbe2 bgr_Vin+ GNDA sky130_fd_pr__res_xhigh_po_0p35 L=2.3 mult=1 m=1
XR6 GNDA bgr_Vin+ GNDA sky130_fd_pr__res_xhigh_po_0p35 L=18 mult=1 m=1
XR7 GNDA bgr_Vin- GNDA sky130_fd_pr__res_xhigh_po_0p35 L=18 mult=1 m=1
XM54 START_UP START_UP START_UP_NFET1 GNDA sky130_fd_pr__nfet_01v8 L=10 W=1 nf=1 ad='int((nf+1)/2) * W/nf * 0.29' as='int((nf+2)/2) * W/nf * 0.29'
+ pd='2*int((nf+1)/2) * (W/nf + 0.29)' ps='2*int((nf+2)/2) * (W/nf + 0.29)' nrd='0.29 / W' nrs='0.29 / W' sa=0 sb=0 sd=0 mult=1 m=1
XM55 START_UP V_TOP VDDA VDDA sky130_fd_pr__pfet_01v8 L=0.5 W=12 nf=4 ad='int((nf+1)/2) * W/nf * 0.29' as='int((nf+2)/2) * W/nf * 0.29'
+ pd='2*int((nf+1)/2) * (W/nf + 0.29)' ps='2*int((nf+2)/2) * (W/nf + 0.29)' nrd='0.29 / W' nrs='0.29 / W' sa=0 sb=0 sd=0 mult=1 m=1
XM56 bgr_Vin- START_UP V_TOP VDDA sky130_fd_pr__pfet_01v8 L=0.15 W=2 nf=2 ad='int((nf+1)/2) * W/nf * 0.29' as='int((nf+2)/2) * W/nf * 0.29'
+ pd='2*int((nf+1)/2) * (W/nf + 0.29)' ps='2*int((nf+2)/2) * (W/nf + 0.29)' nrd='0.29 / W' nrs='0.29 / W' sa=0 sb=0 sd=0 mult=1 m=1
XM57 START_UP_NFET1 START_UP_NFET1 GNDA GNDA sky130_fd_pr__nfet_01v8 L=10 W=1 nf=1 ad='int((nf+1)/2) * W/nf * 0.29' as='int((nf+2)/2) * W/nf * 0.29'
+ pd='2*int((nf+1)/2) * (W/nf + 0.29)' ps='2*int((nf+2)/2) * (W/nf + 0.29)' nrd='0.29 / W' nrs='0.29 / W' sa=0 sb=0 sd=0 mult=1 m=1
x1 VDDA V_TOP bgr_Vin- bgr_Vin+ GNDA opamp_bandgap_2
x2 VDDA V2 V1 V_CUR_REF_REG GNDA opamp_bandgap_2
XM80 V_CUR_REF_REG VDDA VDDA VDDA sky130_fd_pr__pfet_01v8 L=0.15 W=1 nf=1 ad='int((nf+1)/2) * W/nf * 0.29' as='int((nf+2)/2) * W/nf * 0.29'
+ pd='2*int((nf+1)/2) * (W/nf + 0.29)' ps='2*int((nf+2)/2) * (W/nf + 0.29)' nrd='0.29 / W' nrs='0.29 / W' sa=0 sb=0 sd=0 mult=2 m=2
XM83 V1 VDDA VDDA VDDA sky130_fd_pr__pfet_01v8 L=0.5 W=6 nf=2 ad='int((nf+1)/2) * W/nf * 0.29' as='int((nf+2)/2) * W/nf * 0.29' pd='2*int((nf+1)/2) * (W/nf + 0.29)'
+ ps='2*int((nf+2)/2) * (W/nf + 0.29)' nrd='0.29 / W' nrs='0.29 / W' sa=0 sb=0 sd=0 mult=1 m=1
XM92 V_TOP VDDA VDDA VDDA sky130_fd_pr__pfet_01v8 L=0.15 W=2 nf=2 ad='int((nf+1)/2) * W/nf * 0.29' as='int((nf+2)/2) * W/nf * 0.29'
+ pd='2*int((nf+1)/2) * (W/nf + 0.29)' ps='2*int((nf+2)/2) * (W/nf + 0.29)' nrd='0.29 / W' nrs='0.29 / W' sa=0 sb=0 sd=0 mult=1 m=1
XM1 CURRENT_OUTPUT V2 VDDA VDDA sky130_fd_pr__pfet_01v8 L=0.15 W=10 nf=1 ad='int((nf+1)/2) * W/nf * 0.29' as='int((nf+2)/2) * W/nf * 0.29'
+ pd='2*int((nf+1)/2) * (W/nf + 0.29)' ps='2*int((nf+2)/2) * (W/nf + 0.29)' nrd='0.29 / W' nrs='0.29 / W' sa=0 sb=0 sd=0 mult=1 m=1
XM2 CURRENT_OUTPUT VDDA VDDA VDDA sky130_fd_pr__pfet_01v8 L=0.15 W=1 nf=1 ad='int((nf+1)/2) * W/nf * 0.29' as='int((nf+2)/2) * W/nf * 0.29'
+ pd='2*int((nf+1)/2) * (W/nf + 0.29)' ps='2*int((nf+2)/2) * (W/nf + 0.29)' nrd='0.29 / W' nrs='0.29 / W' sa=0 sb=0 sd=0 mult=2 m=2
.ends


* expanding   symbol:  /foss/designs/my_design/projects/pll/charge_pump/xschem_ngspice/rail_to_rail_opamp6.sym # of pins=5
** sym_path: /foss/designs/my_design/projects/pll/charge_pump/xschem_ngspice/rail_to_rail_opamp6.sym
** sch_path: /foss/designs/my_design/projects/pll/charge_pump/xschem_ngspice/rail_to_rail_opamp6.sch
.subckt rail_to_rail_opamp6 VDDA Vin+ Vin- Vout GNDA
*.opin Vout
*.ipin Vin+
*.ipin Vin-
*.ipin VDDA
*.ipin GNDA
XM2 n_left Vin- v_common_n GNDA sky130_fd_pr__nfet_01v8 L=0.15 W=1 nf=1 ad='int((nf+1)/2) * W/nf * 0.29' as='int((nf+2)/2) * W/nf * 0.29'
+ pd='2*int((nf+1)/2) * (W/nf + 0.29)' ps='2*int((nf+2)/2) * (W/nf + 0.29)' nrd='0.29 / W' nrs='0.29 / W' sa=0 sb=0 sd=0 mult=1 m=1
XM3 n_right Vin+ v_common_n GNDA sky130_fd_pr__nfet_01v8 L=0.15 W=1 nf=1 ad='int((nf+1)/2) * W/nf * 0.29' as='int((nf+2)/2) * W/nf * 0.29'
+ pd='2*int((nf+1)/2) * (W/nf + 0.29)' ps='2*int((nf+2)/2) * (W/nf + 0.29)' nrd='0.29 / W' nrs='0.29 / W' sa=0 sb=0 sd=0 mult=1 m=1
XM5 n_left n_left VDDA VDDA sky130_fd_pr__pfet_01v8 L=0.15 W=2 nf=2 ad='int((nf+1)/2) * W/nf * 0.29' as='int((nf+2)/2) * W/nf * 0.29'
+ pd='2*int((nf+1)/2) * (W/nf + 0.29)' ps='2*int((nf+2)/2) * (W/nf + 0.29)' nrd='0.29 / W' nrs='0.29 / W' sa=0 sb=0 sd=0 mult=1 m=1
XM4 n_right n_left VDDA VDDA sky130_fd_pr__pfet_01v8 L=0.15 W=2 nf=2 ad='int((nf+1)/2) * W/nf * 0.29' as='int((nf+2)/2) * W/nf * 0.29'
+ pd='2*int((nf+1)/2) * (W/nf + 0.29)' ps='2*int((nf+2)/2) * (W/nf + 0.29)' nrd='0.29 / W' nrs='0.29 / W' sa=0 sb=0 sd=0 mult=1 m=1
XM6 v_common_p p_bias VDDA VDDA sky130_fd_pr__pfet_01v8 L=0.5 W=10 nf=2 ad='int((nf+1)/2) * W/nf * 0.29' as='int((nf+2)/2) * W/nf * 0.29'
+ pd='2*int((nf+1)/2) * (W/nf + 0.29)' ps='2*int((nf+2)/2) * (W/nf + 0.29)' nrd='0.29 / W' nrs='0.29 / W' sa=0 sb=0 sd=0 mult=1 m=1
XM7 p_left Vin- v_common_p VDDA sky130_fd_pr__pfet_01v8 L=0.15 W=2 nf=2 ad='int((nf+1)/2) * W/nf * 0.29' as='int((nf+2)/2) * W/nf * 0.29'
+ pd='2*int((nf+1)/2) * (W/nf + 0.29)' ps='2*int((nf+2)/2) * (W/nf + 0.29)' nrd='0.29 / W' nrs='0.29 / W' sa=0 sb=0 sd=0 mult=1 m=1
XM8 p_right Vin+ v_common_p VDDA sky130_fd_pr__pfet_01v8 L=0.15 W=2 nf=2 ad='int((nf+1)/2) * W/nf * 0.29' as='int((nf+2)/2) * W/nf * 0.29'
+ pd='2*int((nf+1)/2) * (W/nf + 0.29)' ps='2*int((nf+2)/2) * (W/nf + 0.29)' nrd='0.29 / W' nrs='0.29 / W' sa=0 sb=0 sd=0 mult=1 m=1
XM9 p_left p_left GNDA GNDA sky130_fd_pr__nfet_01v8 L=0.15 W=1 nf=1 ad='int((nf+1)/2) * W/nf * 0.29' as='int((nf+2)/2) * W/nf * 0.29'
+ pd='2*int((nf+1)/2) * (W/nf + 0.29)' ps='2*int((nf+2)/2) * (W/nf + 0.29)' nrd='0.29 / W' nrs='0.29 / W' sa=0 sb=0 sd=0 mult=1 m=1
XM10 p_right p_left GNDA GNDA sky130_fd_pr__nfet_01v8 L=0.15 W=1 nf=1 ad='int((nf+1)/2) * W/nf * 0.29' as='int((nf+2)/2) * W/nf * 0.29'
+ pd='2*int((nf+1)/2) * (W/nf + 0.29)' ps='2*int((nf+2)/2) * (W/nf + 0.29)' nrd='0.29 / W' nrs='0.29 / W' sa=0 sb=0 sd=0 mult=1 m=1
XM1 v_common_n n_bias GNDA GNDA sky130_fd_pr__nfet_01v8 L=0.5 W=5 nf=1 ad='int((nf+1)/2) * W/nf * 0.29' as='int((nf+2)/2) * W/nf * 0.29'
+ pd='2*int((nf+1)/2) * (W/nf + 0.29)' ps='2*int((nf+2)/2) * (W/nf + 0.29)' nrd='0.29 / W' nrs='0.29 / W' sa=0 sb=0 sd=0 mult=1 m=1
XM11 net1 n_right VDDA VDDA sky130_fd_pr__pfet_01v8 L=0.15 W=4 nf=2 ad='int((nf+1)/2) * W/nf * 0.29' as='int((nf+2)/2) * W/nf * 0.29'
+ pd='2*int((nf+1)/2) * (W/nf + 0.29)' ps='2*int((nf+2)/2) * (W/nf + 0.29)' nrd='0.29 / W' nrs='0.29 / W' sa=0 sb=0 sd=0 mult=1 m=1
XM12 Vout p_right GNDA GNDA sky130_fd_pr__nfet_01v8 L=0.15 W=2 nf=1 ad='int((nf+1)/2) * W/nf * 0.29' as='int((nf+2)/2) * W/nf * 0.29'
+ pd='2*int((nf+1)/2) * (W/nf + 0.29)' ps='2*int((nf+2)/2) * (W/nf + 0.29)' nrd='0.29 / W' nrs='0.29 / W' sa=0 sb=0 sd=0 mult=1 m=1
XM13 n_bias n_bias GNDA GNDA sky130_fd_pr__nfet_01v8 L=0.5 W=5 nf=1 ad='int((nf+1)/2) * W/nf * 0.29' as='int((nf+2)/2) * W/nf * 0.29'
+ pd='2*int((nf+1)/2) * (W/nf + 0.29)' ps='2*int((nf+2)/2) * (W/nf + 0.29)' nrd='0.29 / W' nrs='0.29 / W' sa=0 sb=0 sd=0 mult=1 m=1
XM15 p_bias p_bias VDDA VDDA sky130_fd_pr__pfet_01v8 L=0.5 W=10 nf=2 ad='int((nf+1)/2) * W/nf * 0.29' as='int((nf+2)/2) * W/nf * 0.29'
+ pd='2*int((nf+1)/2) * (W/nf + 0.29)' ps='2*int((nf+2)/2) * (W/nf + 0.29)' nrd='0.29 / W' nrs='0.29 / W' sa=0 sb=0 sd=0 mult=1 m=1
Vmeas p_bias net2 0
.save i(vmeas)
XC1 net3 net1 sky130_fd_pr__cap_mim_m3_1 W=10 L=10 MF=1 m=1
XC2 Vout net4 sky130_fd_pr__cap_mim_m3_1 W=10 L=10 MF=1 m=1
XR1 net3 n_right GNDA sky130_fd_pr__res_xhigh_po_0p35 L=1.14 mult=1 m=1
XR2 net4 p_right GNDA sky130_fd_pr__res_xhigh_po_0p35 L=0.86 mult=1 m=1
Vmeas1 net1 Vout 0
.save i(vmeas1)
XR4 n_bias net2 GNDA sky130_fd_pr__res_xhigh_po_2p85 L=0.5 mult=1 m=1
.ends


* expanding   symbol:  /foss/designs/my_design/projects/pll/divider/xschem_ngspice/TSPC_FF_ratioed_divide5_2.sym # of pins=4
** sym_path: /foss/designs/my_design/projects/pll/divider/xschem_ngspice/TSPC_FF_ratioed_divide5_2.sym
** sch_path: /foss/designs/my_design/projects/pll/divider/xschem_ngspice/TSPC_FF_ratioed_divide5_2.sch
.subckt TSPC_FF_ratioed_divide5_2 VOUT VIN VDDA GNDA
*.ipin VIN
*.opin VOUT
*.ipin VDDA
*.ipin GNDA
XM24 E VIN VDDA VDDA sky130_fd_pr__pfet_01v8 L=0.15 W=0.43 nf=1 ad='int((nf+1)/2) * W/nf * 0.29' as='int((nf+2)/2) * W/nf * 0.29' pd='2*int((nf+1)/2) * (W/nf + 0.29)'
+ ps='2*int((nf+2)/2) * (W/nf + 0.29)' nrd='0.29 / W' nrs='0.29 / W' sa=0 sb=0 sd=0 mult=1 m=1
XM29 E D GNDA GNDA sky130_fd_pr__nfet_01v8 L=0.15 W=0.43 nf=1 ad='int((nf+1)/2) * W/nf * 0.29' as='int((nf+2)/2) * W/nf * 0.29' pd='2*int((nf+1)/2) * (W/nf + 0.29)'
+ ps='2*int((nf+2)/2) * (W/nf + 0.29)' nrd='0.29 / W' nrs='0.29 / W' sa=0 sb=0 sd=0 mult=1 m=1
XM30 D B VDDA VDDA sky130_fd_pr__pfet_01v8 L=0.15 W=0.43 nf=1 ad='int((nf+1)/2) * W/nf * 0.29' as='int((nf+2)/2) * W/nf * 0.29' pd='2*int((nf+1)/2) * (W/nf + 0.29)'
+ ps='2*int((nf+2)/2) * (W/nf + 0.29)' nrd='0.29 / W' nrs='0.29 / W' sa=0 sb=0 sd=0 mult=1 m=1
XM31 D VIN GNDA GNDA sky130_fd_pr__nfet_01v8 L=0.15 W=1.5 nf=1 ad='int((nf+1)/2) * W/nf * 0.29' as='int((nf+2)/2) * W/nf * 0.29' pd='2*int((nf+1)/2) * (W/nf + 0.29)'
+ ps='2*int((nf+2)/2) * (W/nf + 0.29)' nrd='0.29 / W' nrs='0.29 / W' sa=0 sb=0 sd=0 mult=1 m=1
XM32 B A VDDA VDDA sky130_fd_pr__pfet_01v8 L=0.15 W=0.43 nf=1 ad='int((nf+1)/2) * W/nf * 0.29' as='int((nf+2)/2) * W/nf * 0.29' pd='2*int((nf+1)/2) * (W/nf + 0.29)'
+ ps='2*int((nf+2)/2) * (W/nf + 0.29)' nrd='0.29 / W' nrs='0.29 / W' sa=0 sb=0 sd=0 mult=1 m=1
XM33 C A GNDA GNDA sky130_fd_pr__nfet_01v8 L=0.15 W=0.43 nf=1 ad='int((nf+1)/2) * W/nf * 0.29' as='int((nf+2)/2) * W/nf * 0.29' pd='2*int((nf+1)/2) * (W/nf + 0.29)'
+ ps='2*int((nf+2)/2) * (W/nf + 0.29)' nrd='0.29 / W' nrs='0.29 / W' sa=0 sb=0 sd=0 mult=1 m=1
XM28 B VIN C GNDA sky130_fd_pr__nfet_01v8 L=0.15 W=0.43 nf=1 ad='int((nf+1)/2) * W/nf * 0.29' as='int((nf+2)/2) * W/nf * 0.29' pd='2*int((nf+1)/2) * (W/nf + 0.29)'
+ ps='2*int((nf+2)/2) * (W/nf + 0.29)' nrd='0.29 / W' nrs='0.29 / W' sa=0 sb=0 sd=0 mult=1 m=1
XM34 Q2_b VIN VDDA VDDA sky130_fd_pr__pfet_01v8 L=0.15 W=0.43 nf=1 ad='int((nf+1)/2) * W/nf * 0.29' as='int((nf+2)/2) * W/nf * 0.29'
+ pd='2*int((nf+1)/2) * (W/nf + 0.29)' ps='2*int((nf+2)/2) * (W/nf + 0.29)' nrd='0.29 / W' nrs='0.29 / W' sa=0 sb=0 sd=0 mult=1 m=1
XM39 Q2_b J GNDA GNDA sky130_fd_pr__nfet_01v8 L=0.15 W=0.43 nf=1 ad='int((nf+1)/2) * W/nf * 0.29' as='int((nf+2)/2) * W/nf * 0.29'
+ pd='2*int((nf+1)/2) * (W/nf + 0.29)' ps='2*int((nf+2)/2) * (W/nf + 0.29)' nrd='0.29 / W' nrs='0.29 / W' sa=0 sb=0 sd=0 mult=1 m=1
XM40 J G VDDA VDDA sky130_fd_pr__pfet_01v8 L=0.15 W=0.43 nf=1 ad='int((nf+1)/2) * W/nf * 0.29' as='int((nf+2)/2) * W/nf * 0.29' pd='2*int((nf+1)/2) * (W/nf + 0.29)'
+ ps='2*int((nf+2)/2) * (W/nf + 0.29)' nrd='0.29 / W' nrs='0.29 / W' sa=0 sb=0 sd=0 mult=1 m=1
XM41 J VIN GNDA GNDA sky130_fd_pr__nfet_01v8 L=0.15 W=1.5 nf=1 ad='int((nf+1)/2) * W/nf * 0.29' as='int((nf+2)/2) * W/nf * 0.29' pd='2*int((nf+1)/2) * (W/nf + 0.29)'
+ ps='2*int((nf+2)/2) * (W/nf + 0.29)' nrd='0.29 / W' nrs='0.29 / W' sa=0 sb=0 sd=0 mult=1 m=1
XM42 G VOUT F VDDA sky130_fd_pr__pfet_01v8 L=0.15 W=0.43 nf=1 ad='int((nf+1)/2) * W/nf * 0.29' as='int((nf+2)/2) * W/nf * 0.29' pd='2*int((nf+1)/2) * (W/nf + 0.29)'
+ ps='2*int((nf+2)/2) * (W/nf + 0.29)' nrd='0.29 / W' nrs='0.29 / W' sa=0 sb=0 sd=0 mult=1 m=1