* PEX produced on Tue Sep  2 04:44:30 AM CEST 2025 using /foss/tools/osic-multitool/iic-pex.sh with m=3 and s=1
* NGSPICE file created from project_5.ext - technology: sky130A

.subckt project_5 ua[0] VDPWR VGND
X0 VGND.t300 V_CONT.t5 sky130_fd_pr__cap_mim_m3_1 l=60 w=13.8
X1 a_14930_6670.t1 a_11860_6640.t3 VGND.t124 VGND.t123 sky130_fd_pr__nfet_01v8 ad=0.5 pd=3 as=0.5 ps=3 w=1 l=0.15
X2 VDPWR.t106 a_17714_9374.t9 a_18160_10940.t6 VDPWR.t105 sky130_fd_pr__pfet_01v8 ad=0.625 pd=3 as=0.625 ps=3 w=2.5 l=0.5
X3 a_19550_2800.t0 a_18930_3150.t3 a_19250_3100.t0 VGND.t21 sky130_fd_pr__nfet_01v8 ad=0.1 pd=0.9 as=0.2 ps=1.8 w=0.5 l=0.15
X4 a_11200_9430.t14 VDPWR.t211 sky130_fd_pr__cap_mim_m3_1 l=2 w=2
X5 a_12300_6670.t0 a_11780_7290.t3 a_11860_6640.t1 VDPWR.t379 sky130_fd_pr__pfet_01v8 ad=0.4 pd=2.4 as=0.8 ps=4.8 w=2 l=0.15
X6 a_12290_3150.t2 a_12070_2860.t3 a_12870_2890.t0 VGND.t85 sky130_fd_pr__nfet_01v8 ad=0.2 pd=1.8 as=0.1 ps=0.9 w=0.5 l=0.15
X7 a_19250_3100.t1 a_18330_3180.t2 VDPWR.t202 VDPWR.t201 sky130_fd_pr__pfet_01v8 ad=0.2 pd=1.8 as=0.1 ps=0.9 w=0.5 l=0.15
X8 VDPWR.t213 a_11200_9430.t15 a_9570_16200.t3 VDPWR.t212 sky130_fd_pr__pfet_01v8 ad=0.6 pd=3.4 as=0.6 ps=3.4 w=3 l=0.5
X9 VDPWR.t321 VDPWR.t319 a_9450_16252.t5 VDPWR.t320 sky130_fd_pr__pfet_01v8 ad=0.4 pd=2.8 as=0.2 ps=1.4 w=1 l=0.2
X10 VDPWR.t132 a_11200_9430.t16 a_10480_13480.t5 VDPWR.t131 sky130_fd_pr__pfet_01v8 ad=0.6 pd=3.4 as=0.6 ps=3.4 w=3 l=0.5
X11 a_9450_17070.t6 a_9450_16252.t2 VGND.t143 sky130_fd_pr__res_high_po_0p35 l=2.05
X12 a_11200_9430.t17 VDPWR.t133 sky130_fd_pr__cap_mim_m3_1 l=2 w=2
X13 VDPWR.t189 a_13200_10990.t10 a_13200_10990.t11 VDPWR.t188 sky130_fd_pr__pfet_01v8 ad=0.2 pd=1.4 as=0.2 ps=1.4 w=1 l=0.2
X14 a_13070_11250.t10 a_10000_15820.t6 a_13360_11960.t4 VGND.t0 sky130_fd_pr__nfet_01v8 ad=0.1 pd=0.9 as=0.1 ps=0.9 w=0.5 l=0.2
X15 a_20140_2930.t2 a_20230_3150.t3 VGND.t249 VGND.t248 sky130_fd_pr__nfet_01v8 ad=0.1 pd=0.9 as=0.1 ps=0.9 w=0.5 l=0.15
X16 VDPWR.t64 a_17950_3100.t2 a_17540_2930.t0 VDPWR.t63 sky130_fd_pr__pfet_01v8 ad=0.1 pd=0.9 as=0.2 ps=1.8 w=0.5 l=0.15
X17 a_16000_6670.t1 a_15320_6670.t2 a_12960_8860.t17 VDPWR.t200 sky130_fd_pr__pfet_01v8 ad=1 pd=5 as=1 ps=5 w=2 l=0.15
X18 VGND.t163 pll_bgr_magic_3_0.VV1.t5 a_15870_5490.t8 VGND.t162 sky130_fd_pr__nfet_01v8 ad=0.125 pd=1 as=0.125 ps=1 w=0.5 l=0.15
X19 a_12380_5460.t0 a_12760_5460.t3 a_12680_5910.t0 VDPWR.t175 sky130_fd_pr__pfet_01v8 ad=0.8 pd=4.8 as=0.4 ps=2.4 w=2 l=0.15
X20 VGND.t106 a_11040_2860.t2 a_10910_3020.t2 VGND.t105 sky130_fd_pr__nfet_01v8 ad=0.1 pd=0.9 as=0.1 ps=0.9 w=0.5 l=0.15
X21 VGND.t178 a_16240_3020.t4 a_15820_2860.t0 VGND.t177 sky130_fd_pr__nfet_01v8 ad=0.1 pd=0.9 as=0.2 ps=1.8 w=0.5 l=0.15
X22 a_17630_3150.t1 a_18330_3180.t3 VDPWR.t338 VDPWR.t337 sky130_fd_pr__pfet_01v8 ad=0.2 pd=1.8 as=0.1 ps=0.9 w=0.5 l=0.15
X23 VDPWR.t413 a_13200_10990.t17 a_13070_11250.t5 VDPWR.t412 sky130_fd_pr__pfet_01v8 ad=0.2 pd=1.4 as=0.2 ps=1.4 w=1 l=0.2
X24 a_13070_11250.t9 a_10000_15820.t7 a_13360_11960.t2 VGND.t0 sky130_fd_pr__nfet_01v8 ad=0.1 pd=0.9 as=0.1 ps=0.9 w=0.5 l=0.2
X25 VGND.t72 a_12070_2860.t4 a_11960_2860.t2 VGND.t71 sky130_fd_pr__nfet_01v8 ad=0.1 pd=0.9 as=0.1 ps=0.9 w=0.5 l=0.15
X26 VGND.t253 a_12960_8860.t18 a_18390_5940.t5 VGND.t252 sky130_fd_pr__nfet_01v8 ad=0.5 pd=2.5 as=0.5 ps=2.5 w=2 l=0.6
X27 VGND.t60 VDPWR.t423 a_11200_9430.t10 VGND.t58 sky130_fd_pr__nfet_01v8 ad=1.01 pd=6.15 as=1 ps=5.8 w=2.5 l=5
X28 a_13070_11250.t11 a_15790_17280.t19 sky130_fd_pr__cap_mim_m3_1 l=2 w=2
X29 VDPWR.t358 a_10160_10990.t17 a_10030_11260.t8 VDPWR.t357 sky130_fd_pr__pfet_01v8 ad=0.2 pd=1.4 as=0.2 ps=1.4 w=1 l=0.2
X30 a_10751_12090.t10 a_9450_16252.t10 VDPWR.t52 VDPWR.t51 sky130_fd_pr__pfet_01v8 ad=0.2 pd=1.4 as=0.2 ps=1.4 w=1 l=0.15
X31 a_18160_10940.t5 a_18160_10940.t3 a_18160_10940.t4 VDPWR.t83 sky130_fd_pr__pfet_01v8 ad=0.5 pd=3 as=0 ps=0 w=1 l=0.15
X32 a_20850_2800.t0 a_20230_3150.t4 a_20550_3100.t1 VGND.t34 sky130_fd_pr__nfet_01v8 ad=0.1 pd=0.9 as=0.2 ps=1.8 w=0.5 l=0.15
X33 a_18390_5940.t3 a_15870_5490.t10 VDPWR.t340 VDPWR.t339 sky130_fd_pr__pfet_01v8 ad=0.5 pd=2.5 as=0.5 ps=2.5 w=2 l=0.6
X34 VGND.t242 VGND.t240 VGND.t242 VGND.t241 sky130_fd_pr__nfet_01v8 ad=0.125 pd=1 as=0 ps=0 w=0.5 l=0.15
X35 a_20550_3100.t0 a_19630_3180.t2 VDPWR.t1 VDPWR.t0 sky130_fd_pr__pfet_01v8 ad=0.2 pd=1.8 as=0.1 ps=0.9 w=0.5 l=0.15
X36 a_9450_16252.t6 VDPWR.t424 VGND.t61 VGND.t58 sky130_fd_pr__nfet_01v8 ad=1 pd=5.8 as=1 ps=5.8 w=2.5 l=5
X37 a_13070_11250.t12 a_15790_17280.t18 sky130_fd_pr__cap_mim_m3_1 l=2 w=2
X38 a_15320_5490.t0 a_14930_5490.t2 VDPWR.t191 VDPWR.t190 sky130_fd_pr__pfet_01v8 ad=1 pd=5 as=1 ps=5 w=2 l=0.15
X39 a_12380_6640.t0 a_12760_6640.t3 a_12680_6670.t0 VDPWR.t175 sky130_fd_pr__pfet_01v8 ad=0.8 pd=4.8 as=0.4 ps=2.4 w=2 l=0.15
X40 VDPWR.t404 a_10160_10990.t15 a_10160_10990.t16 VDPWR.t403 sky130_fd_pr__pfet_01v8 ad=0.2 pd=1.4 as=0.2 ps=1.4 w=1 l=0.2
X41 a_12540_2890.t2 a_12700_3340.t2 VGND.t158 VGND.t157 sky130_fd_pr__nfet_01v8 ad=0.1 pd=0.9 as=0.1 ps=0.9 w=0.5 l=0.15
X42 VGND.t239 VGND.t236 VGND.t238 VGND.t237 sky130_fd_pr__nfet_01v8 ad=0.25 pd=2 as=0 ps=0 w=0.5 l=0.15
X43 a_11200_9430.t18 VDPWR.t359 sky130_fd_pr__cap_mim_m3_1 l=2 w=2
X44 a_10060_12570.t9 a_9570_16200.t7 a_10160_10990.t4 VGND.t0 sky130_fd_pr__nfet_01v8 ad=0.1 pd=0.9 as=0.1 ps=0.9 w=0.5 l=0.2
X45 VDPWR.t116 a_14010_6640.t2 a_13680_6640.t0 VDPWR.t115 sky130_fd_pr__pfet_01v8 ad=0.8 pd=4.8 as=0.8 ps=4.8 w=2 l=0.15
X46 a_10030_11260.t11 a_9450_17070.t2 sky130_fd_pr__cap_mim_m3_1 l=2 w=2
X47 a_13200_5910.t0 a_12380_5460.t3 a_12760_5460.t0 VDPWR.t2 sky130_fd_pr__pfet_01v8 ad=0.4 pd=2.4 as=0.8 ps=4.8 w=2 l=0.15
X48 a_18510_9670.t7 V_CONT.t8 a_19530_10890.t5 VGND.t175 sky130_fd_pr__nfet_01v8 ad=0.125 pd=1 as=0.125 ps=1 w=0.5 l=0.15
X49 VDPWR.t128 a_10160_10990.t13 a_10160_10990.t14 VDPWR.t127 sky130_fd_pr__pfet_01v8 ad=0.2 pd=1.4 as=0.2 ps=1.4 w=1 l=0.2
X50 a_11200_9430.t19 VDPWR.t360 sky130_fd_pr__cap_mim_m3_1 l=2 w=2
X51 VGND.t193 VGND.t235 a_10900_14480.t8 sky130_fd_pr__pnp_05v5_W3p40L3p40
**devattr s=462400,2720
X52 VGND.t295 a_10120_15820.t1 VGND.t27 sky130_fd_pr__res_xhigh_po_0p35 l=6
X53 a_22240_2700.t1 a_21720_2700.t2 a_22130_3360.t0 VDPWR.t328 sky130_fd_pr__pfet_01v8 ad=0.4 pd=2.8 as=0.4 ps=2.8 w=1 l=0.15
X54 a_12960_8860.t16 VDPWR.t316 VDPWR.t318 VDPWR.t317 sky130_fd_pr__pfet_01v8 ad=0.2 pd=1.4 as=0.4 ps=2.8 w=1 l=0.15
X55 VGND.t234 VGND.t232 VGND.t234 VGND.t233 sky130_fd_pr__nfet_01v8 ad=0.5 pd=2.5 as=0 ps=0 w=2 l=0.6
X56 a_18160_10940.t10 a_18390_5940.t6 pll_bgr_magic_3_0.VV1.t4 VDPWR.t248 sky130_fd_pr__pfet_01v8 ad=0.25 pd=1.5 as=0.25 ps=1.5 w=1 l=0.15
X57 a_12960_8860.t10 a_9450_16252.t11 VDPWR.t54 VDPWR.t53 sky130_fd_pr__pfet_01v8 ad=0.2 pd=1.4 as=0.2 ps=1.4 w=1 l=0.15
X58 a_9570_16200.t2 a_11200_9430.t20 VDPWR.t348 VDPWR.t347 sky130_fd_pr__pfet_01v8 ad=0.6 pd=3.4 as=0.6 ps=3.4 w=3 l=0.5
X59 VDPWR.t402 a_13200_10990.t8 a_13200_10990.t9 VDPWR.t401 sky130_fd_pr__pfet_01v8 ad=0.2 pd=1.4 as=0.2 ps=1.4 w=1 l=0.2
X60 a_10030_11260.t12 a_9450_17070.t3 sky130_fd_pr__cap_mim_m3_1 l=2 w=2
X61 VDPWR.t90 a_12070_2860.t5 a_11040_2860.t0 VDPWR.t89 sky130_fd_pr__pfet_01v8 ad=0.1 pd=0.9 as=0.2 ps=1.8 w=0.5 l=0.15
X62 a_15320_6670.t1 VGND.t301 a_14930_6670.t0 VDPWR.t190 sky130_fd_pr__pfet_01v8 ad=1 pd=5 as=1 ps=5 w=2 l=0.15
X63 VDPWR.t215 a_18930_3150.t4 a_18330_3180.t0 VDPWR.t214 sky130_fd_pr__pfet_01v8 ad=0.2 pd=1.8 as=0.2 ps=1.8 w=0.5 l=0.15
X64 ua1.t0 a_22240_2700.t2 a_22650_1940.t0 VGND.t46 sky130_fd_pr__nfet_01v8 ad=0.2 pd=1.8 as=0.2 ps=1.8 w=0.5 l=0.15
X65 a_18390_5940.t4 a_12960_8860.t19 VGND.t265 VGND.t264 sky130_fd_pr__nfet_01v8 ad=0.5 pd=2.5 as=0.5 ps=2.5 w=2 l=0.6
X66 VDPWR.t344 a_10030_11260.t13 a_9450_16252.t8 VDPWR.t343 sky130_fd_pr__pfet_01v8 ad=0.2 pd=1.4 as=0.2 ps=1.4 w=1 l=0.2
X67 VGND.t251 V_CONT.t9 a_22130_1940.t2 VGND.t159 sky130_fd_pr__nfet_01v8 ad=0.4 pd=2.8 as=0.4 ps=2.8 w=1 l=0.15
X68 a_10751_12090.t9 a_9450_16252.t12 VDPWR.t172 VDPWR.t171 sky130_fd_pr__pfet_01v8 ad=0.2 pd=1.4 as=0.2 ps=1.4 w=1 l=0.15
X69 VGND.t74 a_10751_12090.t0 VGND.t73 sky130_fd_pr__res_xhigh_po_0p35 l=1
X70 a_13070_11250.t13 a_15790_17280.t17 sky130_fd_pr__cap_mim_m3_1 l=2 w=2
X71 a_13200_6670.t0 a_12380_6640.t3 a_12760_6640.t1 VDPWR.t2 sky130_fd_pr__pfet_01v8 ad=0.4 pd=2.4 as=0.8 ps=4.8 w=2 l=0.15
X72 a_10000_15820.t4 a_11200_9430.t21 VDPWR.t350 VDPWR.t349 sky130_fd_pr__pfet_01v8 ad=0.6 pd=3.4 as=0.6 ps=3.4 w=3 l=0.5
X73 VDPWR.t104 a_17714_9374.t2 a_17714_9374.t3 VDPWR.t103 sky130_fd_pr__pfet_01v8 ad=0.625 pd=3 as=0.625 ps=3 w=2.5 l=0.5
X74 VDPWR.t245 a_11040_2860.t3 a_10780_3220.t0 VDPWR.t244 sky130_fd_pr__pfet_01v8 ad=0.2 pd=1.8 as=0.2 ps=1.8 w=0.5 l=0.15
X75 VGND.t277 a_18840_2930.t4 a_18330_3180.t1 VGND.t276 sky130_fd_pr__nfet_01v8 ad=0.1 pd=0.9 as=0.2 ps=1.8 w=0.5 l=0.15
X76 a_14930_5490.t0 a_11860_5460.t3 VDPWR.t110 VDPWR.t109 sky130_fd_pr__pfet_01v8 ad=1 pd=5 as=1 ps=5 w=2 l=0.15
X77 VDPWR.t150 a_12700_3340.t3 a_12650_3210.t1 VDPWR.t149 sky130_fd_pr__pfet_01v8 ad=0.1 pd=0.9 as=0.1 ps=0.9 w=0.5 l=0.15
X78 VGND.t180 a_11860_5460.t4 a_11780_5490.t2 VGND.t179 sky130_fd_pr__nfet_01v8 ad=0.4 pd=2.8 as=0.2 ps=1.4 w=1 l=0.15
X79 VDPWR.t112 a_13200_10990.t18 a_13070_11250.t4 VDPWR.t111 sky130_fd_pr__pfet_01v8 ad=0.2 pd=1.4 as=0.2 ps=1.4 w=1 l=0.2
X80 VGND.t193 VGND.t230 a_10900_14480.t7 sky130_fd_pr__pnp_05v5_W3p40L3p40
**devattr s=462400,2720
X81 a_18160_10940.t7 a_17714_9374.t10 VDPWR.t102 VDPWR.t101 sky130_fd_pr__pfet_01v8 ad=0.625 pd=3 as=0.625 ps=3 w=2.5 l=0.5
X82 VGND.t193 VGND.t231 a_10900_14480.t6 sky130_fd_pr__pnp_05v5_W3p40L3p40
**devattr s=462400,2720
X83 a_11200_9430.t22 VDPWR.t78 sky130_fd_pr__cap_mim_m3_1 l=2 w=2
X84 VGND.t174 a_18390_10330.t2 a_18390_10330.t3 VGND.t173 sky130_fd_pr__nfet_01v8 ad=0.125 pd=1 as=0.125 ps=1 w=0.5 l=0.15
X85 a_12960_8860.t9 a_9450_16252.t13 VDPWR.t174 VDPWR.t173 sky130_fd_pr__pfet_01v8 ad=0.2 pd=1.4 as=0.2 ps=1.4 w=1 l=0.15
X86 a_10030_11260.t14 a_9450_17070.t12 sky130_fd_pr__cap_mim_m3_1 l=2 w=2
X87 VGND.t16 a_16000_6670.t3 V_CONT.t0 VGND.t15 sky130_fd_pr__nfet_01v8 ad=0.5 pd=2.5 as=0.5 ps=2.5 w=2 l=0.6
X88 VDPWR.t187 a_13070_11250.t14 a_11200_9430.t5 VDPWR.t186 sky130_fd_pr__pfet_01v8 ad=0.2 pd=1.4 as=0.2 ps=1.4 w=1 l=0.2
X89 a_13360_11960.t9 a_11840_9460.t8 a_13200_10990.t15 VGND.t0 sky130_fd_pr__nfet_01v8 ad=0.1 pd=0.9 as=0.1 ps=0.9 w=0.5 l=0.2
X90 a_21690_4400.t0 V_CONT.t10 VGND.t170 VGND.t169 sky130_fd_pr__nfet_01v8 ad=0.4 pd=2.8 as=0.4 ps=2.8 w=1 l=0.15
X91 VDPWR.t179 a_10160_10990.t11 a_10160_10990.t12 VDPWR.t178 sky130_fd_pr__pfet_01v8 ad=0.2 pd=1.4 as=0.2 ps=1.4 w=1 l=0.2
X92 a_14160_5490.t0 a_13720_5910.t3 VDPWR.t25 VDPWR.t24 sky130_fd_pr__pfet_01v8 ad=0.8 pd=4.8 as=0.8 ps=4.8 w=2 l=0.15
X93 a_13070_11250.t15 a_15790_17280.t16 sky130_fd_pr__cap_mim_m3_1 l=2 w=2
X94 a_14930_6670.t2 a_11860_6640.t4 VDPWR.t336 VDPWR.t109 sky130_fd_pr__pfet_01v8 ad=1 pd=5 as=1 ps=5 w=2 l=0.15
X95 VGND.t229 VGND.t228 VGND.t229 VGND.t162 sky130_fd_pr__nfet_01v8 ad=0.125 pd=1 as=0 ps=0 w=0.5 l=0.15
X96 a_10030_11260.t15 a_9450_17070.t9 sky130_fd_pr__cap_mim_m3_1 l=2 w=2
X97 VDPWR.t331 VGND.t302 a_21610_3360.t0 VDPWR.t330 sky130_fd_pr__pfet_01v8 ad=0.8 pd=4.8 as=0.8 ps=4.8 w=2 l=0.15
X98 VDPWR.t315 VDPWR.t313 VDPWR.t315 VDPWR.t314 sky130_fd_pr__pfet_01v8 ad=0.5 pd=2.5 as=0 ps=0 w=2 l=0.6
X99 VDPWR.t422 a_13070_11250.t16 a_11200_9430.t13 VDPWR.t421 sky130_fd_pr__pfet_01v8 ad=0.2 pd=1.4 as=0.2 ps=1.4 w=1 l=0.2
X100 a_10751_12090.t8 a_9450_16252.t14 VDPWR.t135 VDPWR.t134 sky130_fd_pr__pfet_01v8 ad=0.2 pd=1.4 as=0.2 ps=1.4 w=1 l=0.15
X101 a_16000_6670.t4 a_15710_6670.t0 sky130_fd_pr__cap_mim_m3_1 l=3.8 w=2.7
X102 a_18930_3150.t0 a_19630_3180.t3 VDPWR.t243 VDPWR.t242 sky130_fd_pr__pfet_01v8 ad=0.2 pd=1.8 as=0.1 ps=0.9 w=0.5 l=0.15
X103 a_13070_11250.t17 a_15790_17280.t15 sky130_fd_pr__cap_mim_m3_1 l=2 w=2
X104 a_11860_5460.t1 a_11780_5490.t3 VGND.t32 VGND.t31 sky130_fd_pr__nfet_01v8 ad=0.2 pd=1.4 as=0.4 ps=2.8 w=1 l=0.15
X105 VDPWR.t312 VDPWR.t310 VDPWR.t312 VDPWR.t311 sky130_fd_pr__pfet_01v8 ad=0.5 pd=2.5 as=0 ps=0 w=2 l=0.6
X106 a_15710_6670.t2 a_15320_6670.t3 VGND.t152 VGND.t151 sky130_fd_pr__nfet_01v8 ad=0.5 pd=3 as=0.5 ps=3 w=1 l=0.15
X107 a_10030_11260.t16 a_9450_17070.t10 sky130_fd_pr__cap_mim_m3_1 l=2 w=2
X108 VGND.t50 a_12380_6640.t4 a_11860_6640.t0 VGND.t49 sky130_fd_pr__nfet_01v8 ad=0.4 pd=2.8 as=0.2 ps=1.4 w=1 l=0.15
X109 a_13280_3020.t2 a_12070_2860.t6 VGND.t101 VGND.t100 sky130_fd_pr__nfet_01v8 ad=0.2 pd=1.8 as=0.1 ps=0.9 w=0.5 l=0.15
X110 a_18390_10330.t5 V_CONT.t11 a_18160_10940.t11 VDPWR.t333 sky130_fd_pr__pfet_01v8 ad=0.25 pd=1.5 as=0.25 ps=1.5 w=1 l=0.15
X111 a_9450_16252.t9 a_10030_11260.t17 VDPWR.t346 VDPWR.t345 sky130_fd_pr__pfet_01v8 ad=0.2 pd=1.4 as=0.2 ps=1.4 w=1 l=0.2
X112 a_13070_11250.t18 a_15790_17280.t14 sky130_fd_pr__cap_mim_m3_1 l=2 w=2
X113 a_18410_9620.t7 a_18410_9620.t6 VGND.t70 VGND.t69 sky130_fd_pr__nfet_01v8 ad=0.3125 pd=1.75 as=0.3125 ps=1.75 w=1.25 l=0.5
X114 a_10060_12570.t4 a_10751_12090.t13 a_10030_11260.t2 VGND.t0 sky130_fd_pr__nfet_01v8 ad=0.1 pd=0.9 as=0.1 ps=0.9 w=0.5 l=0.2
X115 a_11200_9430.t23 VDPWR.t79 sky130_fd_pr__cap_mim_m3_1 l=2 w=2
X116 VGND.t62 VDPWR.t425 a_10060_12570.t10 VGND.t58 sky130_fd_pr__nfet_01v8 ad=1 pd=5.8 as=1 ps=5.8 w=2.5 l=5
X117 VGND.t56 a_14340_6640.t2 a_14010_6640.t0 VGND.t55 sky130_fd_pr__nfet_01v8 ad=0.4 pd=2.8 as=0.4 ps=2.8 w=1 l=0.15
X118 a_11780_7290.t0 a_10780_3220.t2 VGND.t115 VGND.t114 sky130_fd_pr__nfet_01v8 ad=0.2 pd=1.4 as=0.4 ps=2.8 w=1 l=0.15
X119 VDPWR.t4 a_13200_10990.t6 a_13200_10990.t7 VDPWR.t3 sky130_fd_pr__pfet_01v8 ad=0.2 pd=1.4 as=0.2 ps=1.4 w=1 l=0.2
X120 a_13910_2890.t0 a_12070_2860.t7 a_13800_2890.t0 VGND.t102 sky130_fd_pr__nfet_01v8 ad=0.1 pd=0.9 as=0.2 ps=1.8 w=0.5 l=0.15
X121 a_16000_5490.t0 a_15320_5490.t2 a_15870_5490.t1 VGND.t12 sky130_fd_pr__nfet_01v8 ad=0.5 pd=3 as=0.5 ps=3 w=1 l=0.15
X122 VDPWR.t181 a_10030_11260.t18 a_9450_16252.t1 VDPWR.t180 sky130_fd_pr__pfet_01v8 ad=0.2 pd=1.4 as=0.2 ps=1.4 w=1 l=0.2
X123 a_14890_17428.t1 a_14770_15820.t1 VGND.t168 sky130_fd_pr__res_xhigh_po_0p35 l=6
X124 a_11540_2890.t0 a_11040_2860.t4 a_11430_2890.t0 VGND.t11 sky130_fd_pr__nfet_01v8 ad=0.1 pd=0.9 as=0.2 ps=1.8 w=0.5 l=0.15
X125 a_10000_17428.t0 a_10000_15820.t0 VGND.t27 sky130_fd_pr__res_xhigh_po_0p35 l=6
X126 a_15870_5490.t7 pll_bgr_magic_3_0.VV1.t6 VGND.t126 VGND.t125 sky130_fd_pr__nfet_01v8 ad=0.125 pd=1 as=0.125 ps=1 w=0.5 l=0.15
X127 a_11200_9430.t24 VDPWR.t207 sky130_fd_pr__cap_mim_m3_1 l=2 w=2
X128 a_18510_9670.t1 a_18410_9620.t9 VGND.t18 VGND.t17 sky130_fd_pr__nfet_01v8 ad=0.3125 pd=1.75 as=0.3125 ps=1.75 w=1.25 l=0.5
X129 VGND.t145 a_17030_3180.t2 a_18250_2800.t0 VGND.t144 sky130_fd_pr__nfet_01v8 ad=0.1 pd=0.9 as=0.1 ps=0.9 w=0.5 l=0.15
X130 a_10060_12570.t3 a_10751_12090.t14 a_10030_11260.t0 VGND.t0 sky130_fd_pr__nfet_01v8 ad=0.1 pd=0.9 as=0.1 ps=0.9 w=0.5 l=0.2
X131 a_11200_9430.t25 VDPWR.t208 sky130_fd_pr__cap_mim_m3_1 l=2 w=2
X132 a_12960_8860.t8 a_9450_16252.t15 VDPWR.t137 VDPWR.t136 sky130_fd_pr__pfet_01v8 ad=0.2 pd=1.4 as=0.2 ps=1.4 w=1 l=0.15
X133 pll_bgr_magic_3_0.VV3.t1 a_18390_5940.t7 a_18510_9670.t3 VGND.t150 sky130_fd_pr__nfet_01v8 ad=0.125 pd=1 as=0.125 ps=1 w=0.5 l=0.15
X134 V_CONT.t7 a_16000_6670.t5 VGND.t286 VGND.t285 sky130_fd_pr__nfet_01v8 ad=0.5 pd=2.5 as=0.5 ps=2.5 w=2 l=0.6
X135 a_15050_2860.t3 a_15160_2860.t3 VGND.t292 VGND.t291 sky130_fd_pr__nfet_01v8 ad=0.2 pd=1.8 as=0.1 ps=0.9 w=0.5 l=0.15
X136 a_13720_5910.t0 a_11860_6640.t5 VDPWR.t335 VDPWR.t334 sky130_fd_pr__pfet_01v8 ad=0.4 pd=2.4 as=0.805 ps=5 w=2 l=0.15
X137 VDPWR.t13 a_10160_10990.t18 a_10030_11260.t7 VDPWR.t12 sky130_fd_pr__pfet_01v8 ad=0.2 pd=1.4 as=0.2 ps=1.4 w=1 l=0.2
X138 VGND.t188 VDPWR.t426 a_21610_1940.t0 VGND.t94 sky130_fd_pr__nfet_01v8 ad=0.4 pd=2.8 as=0.4 ps=2.8 w=1 l=0.15
X139 a_10030_11260.t19 a_9450_17070.t8 sky130_fd_pr__cap_mim_m3_1 l=2 w=2
X140 a_18510_9670.t12 a_18510_9670.t11 a_18510_9670.t12 VGND.t91 sky130_fd_pr__nfet_01v8 ad=0.125 pd=1 as=0 ps=0 w=0.5 l=0.15
X141 ua1.t1 a_22240_2700.t3 a_22650_3360.t0 VDPWR.t238 sky130_fd_pr__pfet_01v8 ad=0.4 pd=2.8 as=0.4 ps=2.8 w=1 l=0.15
X142 VDPWR.t118 a_16000_5490.t3 V_CONT.t1 VDPWR.t117 sky130_fd_pr__pfet_01v8 ad=0.5 pd=2.5 as=0.5 ps=2.5 w=2 l=0.6
X143 a_16650_3100.t1 a_12070_2860.t8 VDPWR.t73 VDPWR.t72 sky130_fd_pr__pfet_01v8 ad=0.2 pd=1.8 as=0.1 ps=0.9 w=0.5 l=0.15
X144 a_10751_12090.t7 a_9450_16252.t16 VDPWR.t142 VDPWR.t141 sky130_fd_pr__pfet_01v8 ad=0.2 pd=1.4 as=0.2 ps=1.4 w=1 l=0.15
X145 VDPWR.t240 a_11200_9430.t26 a_10000_15820.t3 VDPWR.t239 sky130_fd_pr__pfet_01v8 ad=0.6 pd=3.4 as=0.6 ps=3.4 w=3 l=0.5
X146 VGND.t193 VGND.t227 a_11840_9460.t7 sky130_fd_pr__pnp_05v5_W3p40L3p40
**devattr s=462400,2720
X147 VDPWR.t309 VDPWR.t306 VDPWR.t308 VDPWR.t307 sky130_fd_pr__pfet_01v8 ad=0.5 pd=3 as=0 ps=0 w=1 l=0.15
X148 a_9570_17278.t1 a_9570_16200.t6 VGND.t95 sky130_fd_pr__res_xhigh_po_0p35 l=3.35
X149 VGND.t193 VGND.t218 a_10900_14480.t5 sky130_fd_pr__pnp_05v5_W3p40L3p40
**devattr s=462400,2720
X150 VGND.t128 a_12760_5460.t4 a_12380_5460.t1 VGND.t127 sky130_fd_pr__nfet_01v8 ad=0.4 pd=2.8 as=0.2 ps=1.4 w=1 l=0.15
X151 a_20230_3150.t0 ua1.t2 VGND.t42 VGND.t41 sky130_fd_pr__nfet_01v8 ad=0.2 pd=1.8 as=0.1 ps=0.9 w=0.5 l=0.15
X152 VGND.t303 a_15288_18640.t1 sky130_fd_pr__cap_mim_m3_1 l=60 w=69.8
X153 a_13280_3020.t1 a_12070_2860.t9 VGND.t45 VGND.t44 sky130_fd_pr__nfet_01v8 ad=0.1 pd=0.9 as=0.1 ps=0.9 w=0.5 l=0.15
X154 VDPWR.t144 a_9450_16252.t17 a_12960_8860.t7 VDPWR.t143 sky130_fd_pr__pfet_01v8 ad=0.2 pd=1.4 as=0.2 ps=1.4 w=1 l=0.15
X155 a_13070_11250.t19 a_15790_17280.t13 sky130_fd_pr__cap_mim_m3_1 l=2 w=2
X156 a_10060_12570.t2 a_10751_12090.t15 a_10030_11260.t9 VGND.t0 sky130_fd_pr__nfet_01v8 ad=0.1 pd=0.9 as=0.2 ps=1.8 w=0.5 l=0.2
X157 VGND.t47 V_CONT.t12 a_22650_1940.t2 VGND.t46 sky130_fd_pr__nfet_01v8 ad=0.4 pd=2.8 as=0.4 ps=2.8 w=1 l=0.15
X158 a_15380_3150.t1 a_15160_2860.t4 a_15850_2890.t1 VGND.t120 sky130_fd_pr__nfet_01v8 ad=0.2 pd=1.8 as=0.1 ps=0.9 w=0.5 l=0.15
X159 VGND.t24 a_12070_2860.t10 a_16950_2890.t1 VGND.t23 sky130_fd_pr__nfet_01v8 ad=0.1 pd=0.9 as=0.1 ps=0.9 w=0.5 l=0.15
X160 VGND.t30 a_11040_2860.t5 a_13990_2860.t2 VGND.t29 sky130_fd_pr__nfet_01v8 ad=0.2 pd=1.8 as=0.2 ps=1.8 w=0.5 l=0.15
X161 VDPWR.t368 a_13800_2890.t2 a_13280_3020.t3 VDPWR.t367 sky130_fd_pr__pfet_01v8 ad=0.1 pd=0.9 as=0.2 ps=1.8 w=0.5 l=0.15
X162 VGND.t226 VGND.t223 VGND.t225 VGND.t224 sky130_fd_pr__nfet_01v8 ad=0.625 pd=3.5 as=0 ps=0 w=1.25 l=0.5
X163 a_17714_9374.t5 a_17714_9374.t4 VDPWR.t100 VDPWR.t99 sky130_fd_pr__pfet_01v8 ad=0.625 pd=3 as=0.625 ps=3 w=2.5 l=0.5
X164 VDPWR.t370 a_11430_2890.t2 a_10910_3020.t3 VDPWR.t369 sky130_fd_pr__pfet_01v8 ad=0.1 pd=0.9 as=0.2 ps=1.8 w=0.5 l=0.15
X165 a_13070_11250.t20 a_15790_17280.t12 sky130_fd_pr__cap_mim_m3_1 l=2 w=2
X166 a_13070_11250.t21 a_15790_17280.t11 sky130_fd_pr__cap_mim_m3_1 l=2 w=2
X167 VDPWR.t164 a_9450_16252.t18 a_10751_12090.t6 VDPWR.t163 sky130_fd_pr__pfet_01v8 ad=0.2 pd=1.4 as=0.2 ps=1.4 w=1 l=0.15
X168 pll_bgr_magic_3_0.VV1.t3 pll_bgr_magic_3_0.VV2.t1 VGND.t182 sky130_fd_pr__res_xhigh_po_0p35 l=0.86
X169 VDPWR.t160 pll_bgr_magic_3_0.VV3.t5 a_15870_5490.t3 VDPWR.t159 sky130_fd_pr__pfet_01v8 ad=0.25 pd=1.5 as=0.25 ps=1.5 w=1 l=0.15
X170 a_17540_2930.t1 a_17630_3150.t3 VGND.t78 VGND.t77 sky130_fd_pr__nfet_01v8 ad=0.2 pd=1.8 as=0.1 ps=0.9 w=0.5 l=0.15
X171 a_13360_11960.t5 a_10000_15820.t8 a_13070_11250.t8 VGND.t0 sky130_fd_pr__nfet_01v8 ad=0.1 pd=0.9 as=0.1 ps=0.9 w=0.5 l=0.2
X172 VDPWR.t305 VDPWR.t302 VDPWR.t304 VDPWR.t303 sky130_fd_pr__pfet_01v8 ad=1.25 pd=6 as=0 ps=0 w=2.5 l=0.5
X173 a_13070_11250.t22 a_15790_17280.t10 sky130_fd_pr__cap_mim_m3_1 l=2 w=2
X174 a_11200_9430.t27 VDPWR.t241 sky130_fd_pr__cap_mim_m3_1 l=2 w=2
X175 a_15320_5490.t1 a_14930_5490.t3 VGND.t244 VGND.t243 sky130_fd_pr__nfet_01v8 ad=0.5 pd=3 as=0.5 ps=3 w=1 l=0.15
X176 VGND.t165 a_18410_9620.t10 a_18510_9670.t5 VGND.t164 sky130_fd_pr__nfet_01v8 ad=0.3125 pd=1.75 as=0.3125 ps=1.75 w=1.25 l=0.5
X177 a_10480_13480.t4 a_11200_9430.t28 VDPWR.t45 VDPWR.t44 sky130_fd_pr__pfet_01v8 ad=0.6 pd=3.4 as=0.6 ps=3.4 w=3 l=0.5
X178 a_12560_13480.t0 a_10480_13480.t0 a_10480_13480.t1 VGND.t88 sky130_fd_pr__nfet_01v8 ad=0.2 pd=1.4 as=0.4 ps=2.8 w=1 l=10
X179 a_15050_2860.t0 a_15380_3150.t3 VDPWR.t37 VDPWR.t36 sky130_fd_pr__pfet_01v8 ad=0.2 pd=1.8 as=0.1 ps=0.9 w=0.5 l=0.15
X180 a_12960_8860.t6 a_9450_16252.t19 VDPWR.t166 VDPWR.t165 sky130_fd_pr__pfet_01v8 ad=0.2 pd=1.4 as=0.2 ps=1.4 w=1 l=0.15
X181 pll_bgr_magic_3_0.VV1.t2 a_18390_10330.t6 VGND.t136 VGND.t135 sky130_fd_pr__nfet_01v8 ad=0.125 pd=1 as=0.125 ps=1 w=0.5 l=0.15
X182 VGND.t222 VGND.t219 VGND.t221 VGND.t220 sky130_fd_pr__nfet_01v8 ad=1 pd=5 as=0 ps=0 w=2 l=0.6
X183 VDPWR.t68 a_19530_10890.t6 pll_bgr_magic_3_0.VV3.t4 VDPWR.t67 sky130_fd_pr__pfet_01v8 ad=0.25 pd=1.5 as=0.25 ps=1.5 w=1 l=0.15
X184 a_11200_9430.t29 VDPWR.t46 sky130_fd_pr__cap_mim_m3_1 l=2 w=2
X185 a_15050_2860.t2 a_15160_2860.t5 VGND.t267 VGND.t266 sky130_fd_pr__nfet_01v8 ad=0.1 pd=0.9 as=0.1 ps=0.9 w=0.5 l=0.15
X186 a_11200_9430.t30 VDPWR.t392 sky130_fd_pr__cap_mim_m3_1 l=2 w=2
X187 a_12760_5460.t1 a_12380_5460.t4 VGND.t2 VGND.t1 sky130_fd_pr__nfet_01v8 ad=0.2 pd=1.4 as=0.4 ps=2.8 w=1 l=0.15
X188 V_CONT.t2 a_16000_5490.t4 VDPWR.t139 VDPWR.t138 sky130_fd_pr__pfet_01v8 ad=0.5 pd=2.5 as=0.5 ps=2.5 w=2 l=0.6
X189 VGND.t54 a_13280_5460.t2 a_12760_6640.t0 VGND.t53 sky130_fd_pr__nfet_01v8 ad=0.4 pd=2.8 as=0.2 ps=1.4 w=1 l=0.15
X190 a_10751_12090.t12 VDPWR.t299 VDPWR.t301 VDPWR.t300 sky130_fd_pr__pfet_01v8 ad=0.2 pd=1.4 as=0.4 ps=2.8 w=1 l=0.15
X191 a_11200_9430.t31 VDPWR.t393 sky130_fd_pr__cap_mim_m3_1 l=2 w=2
X192 a_10060_12570.t8 a_9570_16200.t8 a_10160_10990.t0 VGND.t0 sky130_fd_pr__nfet_01v8 ad=0.1 pd=0.9 as=0.1 ps=0.9 w=0.5 l=0.2
X193 VDPWR.t23 a_21690_4400.t1 a_21690_4400.t2 VDPWR.t22 sky130_fd_pr__pfet_01v8 ad=0.8 pd=4.8 as=0.8 ps=4.8 w=2 l=1.5
X194 VDPWR.t342 a_15870_5490.t11 a_18390_5940.t2 VDPWR.t341 sky130_fd_pr__pfet_01v8 ad=0.5 pd=2.5 as=0.5 ps=2.5 w=2 l=0.6
X195 a_12380_6640.t2 a_11780_7290.t4 VGND.t271 VGND.t270 sky130_fd_pr__nfet_01v8 ad=0.2 pd=1.4 as=0.4 ps=2.8 w=1 l=0.15
X196 a_15710_5490.t0 a_15320_5490.t3 VDPWR.t56 VDPWR.t16 sky130_fd_pr__pfet_01v8 ad=1 pd=5 as=1 ps=5 w=2 l=0.15
X197 VDPWR.t364 a_9450_16252.t20 a_12960_8860.t5 VDPWR.t363 sky130_fd_pr__pfet_01v8 ad=0.2 pd=1.4 as=0.2 ps=1.4 w=1 l=0.15
X198 VDPWR.t237 a_13200_10990.t19 a_13070_11250.t3 VDPWR.t236 sky130_fd_pr__pfet_01v8 ad=0.2 pd=1.4 as=0.2 ps=1.4 w=1 l=0.2
X199 VDPWR.t324 a_12380_5460.t5 a_12300_5910.t0 VDPWR.t151 sky130_fd_pr__pfet_01v8 ad=0.8 pd=4.8 as=0.4 ps=2.4 w=2 l=0.15
X200 VDPWR.t210 a_17030_3180.t3 a_15160_2860.t1 VDPWR.t209 sky130_fd_pr__pfet_01v8 ad=0.1 pd=0.9 as=0.2 ps=1.8 w=0.5 l=0.15
X201 a_13990_2860.t1 a_11040_2860.t6 VDPWR.t183 VDPWR.t182 sky130_fd_pr__pfet_01v8 ad=0.2 pd=1.8 as=0.1 ps=0.9 w=0.5 l=0.15
X202 a_15740_2890.t1 a_14690_3160.t2 VGND.t149 VGND.t148 sky130_fd_pr__nfet_01v8 ad=0.1 pd=0.9 as=0.2 ps=1.8 w=0.5 l=0.15
X203 a_16240_3020.t2 a_15160_2860.t6 VGND.t279 VGND.t278 sky130_fd_pr__nfet_01v8 ad=0.2 pd=1.8 as=0.1 ps=0.9 w=0.5 l=0.15
X204 VDPWR.t199 a_21690_4400.t3 a_21610_3360.t1 VDPWR.t198 sky130_fd_pr__pfet_01v8 ad=0.8 pd=4.8 as=0.8 ps=4.8 w=2 l=1.5
X205 VGND.t147 a_18930_3150.t5 a_18840_2930.t2 VGND.t146 sky130_fd_pr__nfet_01v8 ad=0.1 pd=0.9 as=0.1 ps=0.9 w=0.5 l=0.15
X206 a_15870_5490.t12 pll_bgr_magic_3_0.VV2.t0 sky130_fd_pr__cap_mim_m3_1 l=10 w=10
X207 VGND.t288 a_13680_6640.t2 a_13280_5460.t1 VGND.t287 sky130_fd_pr__nfet_01v8 ad=0.4 pd=2.8 as=0.4 ps=2.8 w=1 l=0.15
X208 VDPWR.t298 VDPWR.t296 a_11200_9430.t9 VDPWR.t297 sky130_fd_pr__pfet_01v8 ad=0.4 pd=2.8 as=0.2 ps=1.4 w=1 l=0.15
X209 a_11780_5910.t0 ua[0].t0 VDPWR.t140 VDPWR.t69 sky130_fd_pr__pfet_01v8 ad=0.4 pd=2.4 as=0.8 ps=4.8 w=2 l=0.15
X210 a_12070_2860.t2 a_14690_3160.t3 VDPWR.t410 VDPWR.t409 sky130_fd_pr__pfet_01v8 ad=0.1 pd=0.9 as=0.2 ps=1.8 w=0.5 l=0.15
X211 VDPWR.t185 a_13070_11250.t23 a_11200_9430.t4 VDPWR.t184 sky130_fd_pr__pfet_01v8 ad=0.2 pd=1.4 as=0.2 ps=1.4 w=1 l=0.2
X212 a_17540_2930.t2 a_17630_3150.t4 VGND.t80 VGND.t79 sky130_fd_pr__nfet_01v8 ad=0.1 pd=0.9 as=0.1 ps=0.9 w=0.5 l=0.15
X213 a_13360_11960.t6 a_10000_15820.t9 a_13070_11250.t7 VGND.t0 sky130_fd_pr__nfet_01v8 ad=0.1 pd=0.9 as=0.1 ps=0.9 w=0.5 l=0.2
X214 a_14930_5490.t1 a_11860_5460.t5 VGND.t138 VGND.t137 sky130_fd_pr__nfet_01v8 ad=0.5 pd=3 as=0.5 ps=3 w=1 l=0.15
X215 VGND.t217 VGND.t215 VGND.t217 VGND.t216 sky130_fd_pr__nfet_01v8 ad=0.5 pd=2.5 as=0 ps=0 w=2 l=0.6
X216 VGND.t110 a_18330_3180.t4 a_19550_2800.t1 VGND.t109 sky130_fd_pr__nfet_01v8 ad=0.1 pd=0.9 as=0.1 ps=0.9 w=0.5 l=0.15
X217 a_15710_6670.t1 a_15320_6670.t4 VDPWR.t17 VDPWR.t16 sky130_fd_pr__pfet_01v8 ad=1 pd=5 as=1 ps=5 w=2 l=0.15
X218 VDPWR.t152 a_12380_6640.t5 a_12300_6670.t1 VDPWR.t151 sky130_fd_pr__pfet_01v8 ad=0.8 pd=4.8 as=0.4 ps=2.4 w=2 l=0.15
X219 VDPWR.t156 a_16000_5490.t5 V_CONT.t3 VDPWR.t155 sky130_fd_pr__pfet_01v8 ad=0.5 pd=2.5 as=0.5 ps=2.5 w=2 l=0.6
X220 a_16000_6670.t2 a_15320_6670.t5 VGND.t263 VGND.t262 sky130_fd_pr__nfet_01v8 ad=0.5 pd=3 as=0.5 ps=3 w=1 l=0.15
X221 a_13200_10990.t5 a_13200_10990.t4 VDPWR.t204 VDPWR.t203 sky130_fd_pr__pfet_01v8 ad=0.2 pd=1.4 as=0.2 ps=1.4 w=1 l=0.2
X222 a_10030_11260.t20 a_9450_17070.t1 sky130_fd_pr__cap_mim_m3_1 l=2 w=2
X223 VDPWR.t389 a_14340_6640.t3 a_14010_6640.t1 VDPWR.t388 sky130_fd_pr__pfet_01v8 ad=0.8 pd=4.8 as=0.8 ps=4.8 w=2 l=0.15
X224 a_11780_6670.t1 a_10780_3220.t3 VDPWR.t70 VDPWR.t69 sky130_fd_pr__pfet_01v8 ad=0.4 pd=2.4 as=0.8 ps=4.8 w=2 l=0.15
X225 a_9450_16252.t7 a_10030_11260.t21 VDPWR.t326 VDPWR.t325 sky130_fd_pr__pfet_01v8 ad=0.2 pd=1.4 as=0.2 ps=1.4 w=1 l=0.2
X226 VDPWR.t120 a_11200_9430.t32 a_10480_13480.t3 VDPWR.t119 sky130_fd_pr__pfet_01v8 ad=0.6 pd=3.4 as=0.6 ps=3.4 w=3 l=0.5
X227 VGND.t130 a_20230_3150.t5 a_20140_2930.t1 VGND.t129 sky130_fd_pr__nfet_01v8 ad=0.1 pd=0.9 as=0.1 ps=0.9 w=0.5 l=0.15
X228 a_18390_5940.t1 a_15870_5490.t13 VDPWR.t124 VDPWR.t123 sky130_fd_pr__pfet_01v8 ad=0.5 pd=2.5 as=0.5 ps=2.5 w=2 l=0.6
X229 a_10030_11260.t22 a_9450_17070.t14 sky130_fd_pr__cap_mim_m3_1 l=2 w=2
X230 VDPWR.t170 a_14690_3160.t4 a_15380_3150.t2 VDPWR.t169 sky130_fd_pr__pfet_01v8 ad=0.1 pd=0.9 as=0.2 ps=1.8 w=0.5 l=0.15
X231 VDPWR.t329 VGND.t304 a_22130_3360.t2 VDPWR.t328 sky130_fd_pr__pfet_01v8 ad=0.8 pd=4.8 as=0.8 ps=4.8 w=2 l=0.15
X232 a_14160_5490.t1 a_13720_5910.t4 VGND.t52 VGND.t51 sky130_fd_pr__nfet_01v8 ad=0.4 pd=2.8 as=0.4 ps=2.8 w=1 l=0.15
X233 VGND.t214 VGND.t211 VGND.t213 VGND.t212 sky130_fd_pr__nfet_01v8 ad=0.25 pd=2 as=0 ps=0 w=0.5 l=0.15
X234 a_19530_10890.t3 a_19530_10890.t2 VDPWR.t219 VDPWR.t218 sky130_fd_pr__pfet_01v8 ad=0.25 pd=1.5 as=0.25 ps=1.5 w=1 l=0.15
X235 a_13070_11250.t24 a_15790_17280.t9 sky130_fd_pr__cap_mim_m3_1 l=2 w=2
X236 a_10910_3020.t1 a_11040_2860.t7 VGND.t191 VGND.t190 sky130_fd_pr__nfet_01v8 ad=0.2 pd=1.8 as=0.1 ps=0.9 w=0.5 l=0.15
X237 VDPWR.t406 a_11860_5460.t6 a_13720_5910.t2 VDPWR.t405 sky130_fd_pr__pfet_01v8 ad=0.8 pd=4.8 as=0.4 ps=2.4 w=2 l=0.15
X238 a_16240_3020.t3 a_15160_2860.t7 VGND.t290 VGND.t289 sky130_fd_pr__nfet_01v8 ad=0.1 pd=0.9 as=0.1 ps=0.9 w=0.5 l=0.15
X239 VGND.t176 a_9690_16200.t1 VGND.t95 sky130_fd_pr__res_xhigh_po_0p35 l=3.35
X240 a_11960_2860.t1 a_12070_2860.t11 VGND.t26 VGND.t25 sky130_fd_pr__nfet_01v8 ad=0.2 pd=1.8 as=0.1 ps=0.9 w=0.5 l=0.15
X241 a_11840_9460.t2 a_10480_13480.t6 a_11200_9430.t11 VDPWR.t397 sky130_fd_pr__pfet_01v8 ad=0.2 pd=1.4 as=0.2 ps=1.4 w=1 l=0.15
X242 a_10030_11260.t6 a_10160_10990.t19 VDPWR.t21 VDPWR.t20 sky130_fd_pr__pfet_01v8 ad=0.2 pd=1.4 as=0.2 ps=1.4 w=1 l=0.2
X243 a_13070_11250.t25 a_15790_17280.t8 sky130_fd_pr__cap_mim_m3_1 l=2 w=2
X244 VDPWR.t295 VDPWR.t293 a_10751_12090.t11 VDPWR.t294 sky130_fd_pr__pfet_01v8 ad=0.4 pd=2.8 as=0.2 ps=1.4 w=1 l=0.15
X245 VDPWR.t122 a_11200_9430.t33 a_10000_15820.t2 VDPWR.t121 sky130_fd_pr__pfet_01v8 ad=0.6 pd=3.4 as=0.6 ps=3.4 w=3 l=0.5
X246 VDPWR.t98 a_17714_9374.t0 a_17714_9374.t1 VDPWR.t97 sky130_fd_pr__pfet_01v8 ad=0.625 pd=3 as=0.625 ps=3 w=2.5 l=0.5
X247 VGND.t38 a_19630_3180.t4 a_20850_2800.t1 VGND.t37 sky130_fd_pr__nfet_01v8 ad=0.1 pd=0.9 as=0.1 ps=0.9 w=0.5 l=0.15
X248 VGND.t210 VGND.t208 VGND.t210 VGND.t209 sky130_fd_pr__nfet_01v8 ad=0.3125 pd=1.75 as=0 ps=0 w=1.25 l=0.5
X249 a_11200_9430.t34 VDPWR.t373 sky130_fd_pr__cap_mim_m3_1 l=2 w=2
X250 a_15870_5490.t0 pll_bgr_magic_3_0.VV3.t6 VDPWR.t7 VDPWR.t6 sky130_fd_pr__pfet_01v8 ad=0.25 pd=1.5 as=0.25 ps=1.5 w=1 l=0.15
X251 a_16950_2890.t0 a_15160_2860.t8 a_16650_3100.t0 VGND.t104 sky130_fd_pr__nfet_01v8 ad=0.1 pd=0.9 as=0.2 ps=1.8 w=0.5 l=0.15
X252 VDPWR.t400 a_20230_3150.t6 a_19630_3180.t0 VDPWR.t399 sky130_fd_pr__pfet_01v8 ad=0.2 pd=1.8 as=0.2 ps=1.8 w=0.5 l=0.15
X253 a_11200_9430.t0 a_13070_11250.t26 VDPWR.t9 VDPWR.t8 sky130_fd_pr__pfet_01v8 ad=0.2 pd=1.4 as=0.2 ps=1.4 w=1 l=0.2
X254 a_12870_2890.t1 a_11040_2860.t8 a_12540_2890.t0 VGND.t187 sky130_fd_pr__nfet_01v8 ad=0.1 pd=0.9 as=0.1 ps=0.9 w=0.5 l=0.15
X255 VDPWR.t81 a_19250_3100.t2 a_18840_2930.t3 VDPWR.t80 sky130_fd_pr__pfet_01v8 ad=0.1 pd=0.9 as=0.2 ps=1.8 w=0.5 l=0.15
X256 VGND.t112 a_18390_10330.t7 pll_bgr_magic_3_0.VV1.t1 VGND.t111 sky130_fd_pr__nfet_01v8 ad=0.125 pd=1 as=0.125 ps=1 w=0.5 l=0.15
X257 a_11200_9430.t35 VDPWR.t374 sky130_fd_pr__cap_mim_m3_1 l=2 w=2
X258 VGND.t269 a_14690_3160.t5 a_12070_2860.t0 VGND.t268 sky130_fd_pr__nfet_01v8 ad=0.2 pd=1.8 as=0.2 ps=1.8 w=0.5 l=0.15
X259 a_10160_10990.t10 a_10160_10990.t9 VDPWR.t148 VDPWR.t147 sky130_fd_pr__pfet_01v8 ad=0.2 pd=1.4 as=0.2 ps=1.4 w=1 l=0.2
X260 VDPWR.t35 a_13280_5460.t3 a_13200_5910.t1 VDPWR.t34 sky130_fd_pr__pfet_01v8 ad=0.8 pd=4.8 as=0.4 ps=2.4 w=2 l=0.15
X261 a_10030_11260.t23 a_9450_17070.t20 sky130_fd_pr__cap_mim_m3_1 l=2 w=2
X262 VGND.t257 a_20140_2930.t4 a_19630_3180.t1 VGND.t256 sky130_fd_pr__nfet_01v8 ad=0.1 pd=0.9 as=0.2 ps=1.8 w=0.5 l=0.15
X263 VGND.t189 VDPWR.t427 a_22130_1940.t1 VGND.t159 sky130_fd_pr__nfet_01v8 ad=0.4 pd=2.8 as=0.4 ps=2.8 w=1 l=0.15
X264 VDPWR.t292 VDPWR.t289 VDPWR.t291 VDPWR.t290 sky130_fd_pr__pfet_01v8 ad=1 pd=5 as=0 ps=0 w=2 l=0.6