* PEX produced on Wed Sep  3 11:51:33 AM CEST 2025 using /foss/tools/osic-multitool/iic-pex.sh with m=3 and s=1
* NGSPICE file created from project_3.ext - technology: sky130A

.subckt project_3 ua[0] ua[1] VDPWR VGND
X0 a_13750_11850.t7 a_10354_16286.t6 a_14040_12560.t8 VGND.t212 sky130_fd_pr__nfet_01v8 ad=0.1 pd=0.9 as=0.1 ps=0.9 w=0.5 l=0.2
X1 VGND.t42 I_IN.t15 I_IN.t16 VGND.t41 sky130_fd_pr__nfet_01v8 ad=0.5 pd=2.5 as=0.5 ps=2.5 w=2 l=0.6
X2 a_10710_11860.t11 a_8454_18026.t20 sky130_fd_pr__cap_mim_m3_1 l=2 w=2
X3 VGND.t176 VDPWR.t426 a_11880_10030.t9 VGND.t175 sky130_fd_pr__nfet_01v8 ad=1.01 pd=6.15 as=1 ps=5.8 w=2.5 l=5
X4 VDPWR.t114 a_21100_10960.t5 a_17450_6090.t7 VDPWR.t113 sky130_fd_pr__pfet_01v8 ad=0.25 pd=1.5 as=0.25 ps=1.5 w=1 l=0.15
X5 VDPWR.t23 ua[1].t2 a_21810_3370.t2 VDPWR.t22 sky130_fd_pr__pfet_01v8 ad=0.1 pd=0.9 as=0.2 ps=1.8 w=0.5 l=0.15
X6 a_17290_6090.t1 a_16900_6090.t2 VDPWR.t202 VDPWR.t186 sky130_fd_pr__pfet_01v8 ad=1 pd=5 as=1 ps=5 w=2 l=0.15
X7 a_16510_6090.t1 a_13440_6060.t3 VDPWR.t99 VDPWR.t98 sky130_fd_pr__pfet_01v8 ad=1 pd=5 as=1 ps=5 w=2 l=0.15
X8 a_16630_3080.t2 a_16740_3080.t3 VGND.t52 VGND.t51 sky130_fd_pr__nfet_01v8 ad=0.1 pd=0.9 as=0.1 ps=0.9 w=0.5 l=0.15
X9 a_19440_11540.t8 a_19440_11540.t7 a_19440_11540.t8 VDPWR.t373 sky130_fd_pr__pfet_01v8 ad=0.25 pd=1.5 as=0 ps=0 w=1 l=0.15
X10 a_10710_11860.t12 a_8454_18026.t19 sky130_fd_pr__cap_mim_m3_1 l=2 w=2
X11 VDPWR.t31 a_18230_3320.t2 a_17820_3240.t0 VDPWR.t30 sky130_fd_pr__pfet_01v8 ad=0.1 pd=0.9 as=0.2 ps=1.8 w=0.5 l=0.15
X12 VDPWR.t80 PFET_GATE.t10 I_IN.t5 VDPWR.t79 sky130_fd_pr__pfet_01v8 ad=0.2 pd=1.4 as=0.2 ps=1.4 w=1 l=0.15
X13 a_20510_3370.t0 a_21210_3400.t2 VGND.t107 VGND.t106 sky130_fd_pr__nfet_01v8 ad=0.2 pd=1.8 as=0.1 ps=0.9 w=0.5 l=0.15
X14 a_11880_10030.t14 VDPWR.t376 sky130_fd_pr__cap_mim_m3_1 l=2 w=2
X15 a_19670_10930.t4 a_19670_10930.t3 VGND.t309 VGND.t308 sky130_fd_pr__nfet_01v8 ad=0.125 pd=1 as=0.125 ps=1 w=0.5 l=0.15
X16 PFET_GATE.t7 VDPWR.t427 VGND.t179 VGND.t178 sky130_fd_pr__nfet_01v8 ad=1 pd=5.8 as=1 ps=5.8 w=2.5 l=5
X17 a_10710_11860.t13 a_8454_18026.t18 sky130_fd_pr__cap_mim_m3_1 l=2 w=2
X18 a_13360_6510.t0 ua[0].t0 VDPWR.t72 VDPWR.t71 sky130_fd_pr__pfet_01v8 ad=0.4 pd=2.4 as=0.8 ps=4.8 w=2 l=0.15
X19 VDPWR.t66 a_13880_11590.t14 a_13880_11590.t15 VDPWR.t65 sky130_fd_pr__pfet_01v8 ad=0.2 pd=1.4 as=0.2 ps=1.4 w=1 l=0.2
X20 VDPWR.t282 a_10710_11860.t14 PFET_GATE.t6 VDPWR.t281 sky130_fd_pr__pfet_01v8 ad=0.2 pd=1.4 as=0.2 ps=1.4 w=1 l=0.2
X21 ua[1].t0 a_23830_2840.t2 a_24238_3560.t0 VDPWR.t181 sky130_fd_pr__pfet_01v8 ad=0.8 pd=4.8 as=0.8 ps=4.8 w=2 l=0.16
X22 a_10740_13170.t4 a_9573_16817.t7 a_10840_11590.t1 VGND.t117 sky130_fd_pr__nfet_01v8 ad=0.1 pd=0.9 as=0.1 ps=0.9 w=0.5 l=0.2
X23 a_13750_11850.t11 a_17574_18026.t20 sky130_fd_pr__cap_mim_m3_1 l=2 w=2
X24 VDPWR.t125 PFET_GATE.t11 a_11431_12690.t9 VDPWR.t124 sky130_fd_pr__pfet_01v8 ad=0.2 pd=1.4 as=0.2 ps=1.4 w=1 l=0.15
X25 a_10710_11860.t15 a_8454_18026.t17 sky130_fd_pr__cap_mim_m3_1 l=2 w=2
X26 a_17290_7270.t2 a_16900_7270.t2 VDPWR.t187 VDPWR.t186 sky130_fd_pr__pfet_01v8 ad=1 pd=5 as=1 ps=5 w=2 l=0.15
X27 VDPWR.t363 VDPWR.t360 VDPWR.t362 VDPWR.t361 sky130_fd_pr__pfet_01v8 ad=0.5 pd=3 as=0 ps=0 w=1 l=0.15
X28 VDPWR.t105 a_16270_3380.t2 a_13650_3080.t2 VDPWR.t104 sky130_fd_pr__pfet_01v8 ad=0.2 pd=1.8 as=0.1 ps=0.9 w=0.5 l=0.15
X29 a_16510_7270.t1 a_13440_7240.t3 VDPWR.t203 VDPWR.t98 sky130_fd_pr__pfet_01v8 ad=1 pd=5 as=1 ps=5 w=2 l=0.15
X30 VDPWR.t97 a_10840_11590.t17 a_10710_11860.t2 VDPWR.t96 sky130_fd_pr__pfet_01v8 ad=0.2 pd=1.4 as=0.2 ps=1.4 w=1 l=0.2
X31 a_13750_11850.t12 a_17574_18026.t19 sky130_fd_pr__cap_mim_m3_1 l=2 w=2
X32 a_14120_3110.t2 a_14280_3560.t2 VGND.t65 VGND.t64 sky130_fd_pr__nfet_01v8 ad=0.1 pd=0.9 as=0.1 ps=0.9 w=0.5 l=0.15
X33 V_CONT.t3 a_17580_6090.t3 VDPWR.t232 VDPWR.t231 sky130_fd_pr__pfet_01v8 ad=0.5 pd=2.5 as=0.5 ps=2.5 w=2 l=0.6
X34 VDPWR.t270 VGND.t327 a_23718_3560.t2 VDPWR.t269 sky130_fd_pr__pfet_01v8 ad=1.2 pd=6.8 as=1.2 ps=6.8 w=3 l=0.15
X35 VDPWR.t101 a_13650_3080.t3 a_14280_3560.t0 VDPWR.t100 sky130_fd_pr__pfet_01v8 ad=0.2 pd=1.8 as=0.2 ps=1.8 w=0.5 l=0.15
X36 a_13360_7270.t1 a_12360_3440.t2 VDPWR.t178 VDPWR.t71 sky130_fd_pr__pfet_01v8 ad=0.4 pd=2.4 as=0.8 ps=4.8 w=2 l=0.15
X37 a_11880_10030.t15 VDPWR.t377 sky130_fd_pr__cap_mim_m3_1 l=2 w=2
X38 VGND.t214 VGND.t266 a_11580_15080.t8 sky130_fd_pr__pnp_05v5_W3p40L3p40
**devattr s=462400,2720
X39 I_IN.t14 I_IN.t13 VGND.t109 VGND.t108 sky130_fd_pr__nfet_01v8 ad=0.5 pd=2.5 as=0.5 ps=2.5 w=2 l=0.6
X40 VDPWR.t370 a_20810_11490.t6 a_21100_10960.t4 VDPWR.t369 sky130_fd_pr__pfet_01v8 ad=0.25 pd=1.5 as=0.25 ps=1.5 w=1 l=0.15
X41 a_11880_10030.t16 VDPWR.t46 sky130_fd_pr__cap_mim_m3_1 l=2 w=2
X42 VDPWR.t264 a_13750_11850.t13 a_11880_10030.t8 VDPWR.t263 sky130_fd_pr__pfet_01v8 ad=0.2 pd=1.4 as=0.2 ps=1.4 w=1 l=0.2
X43 VGND.t63 a_14860_6060.t2 a_14340_6060.t0 VGND.t62 sky130_fd_pr__nfet_01v8 ad=0.4 pd=2.8 as=0.2 ps=1.4 w=1 l=0.15
X44 a_21130_3020.t0 a_20510_3370.t3 a_20830_3320.t0 VGND.t140 sky130_fd_pr__nfet_01v8 ad=0.1 pd=0.9 as=0.2 ps=1.8 w=0.5 l=0.15
X45 VGND.t181 VDPWR.t428 a_23718_2840.t2 VGND.t180 sky130_fd_pr__nfet_01v8 ad=0.6 pd=3.8 as=0.6 ps=3.8 w=1.5 l=0.15
X46 a_19210_3370.t2 a_19910_3400.t2 VDPWR.t134 VDPWR.t133 sky130_fd_pr__pfet_01v8 ad=0.2 pd=1.8 as=0.1 ps=0.9 w=0.5 l=0.15
X47 VDPWR.t165 PFET_GATE.t12 I_IN.t9 VDPWR.t164 sky130_fd_pr__pfet_01v8 ad=0.2 pd=1.4 as=0.2 ps=1.4 w=1 l=0.15
X48 a_11880_10030.t17 VDPWR.t47 sky130_fd_pr__cap_mim_m3_1 l=2 w=2
X49 VDPWR.t180 a_10840_11590.t15 a_10840_11590.t16 VDPWR.t179 sky130_fd_pr__pfet_01v8 ad=0.2 pd=1.4 as=0.2 ps=1.4 w=1 l=0.2
X50 a_10710_11860.t16 a_8454_18026.t16 sky130_fd_pr__cap_mim_m3_1 l=2 w=2
X51 a_16960_3370.t0 a_17400_3080.t2 VDPWR.t207 VDPWR.t206 sky130_fd_pr__pfet_01v8 ad=0.2 pd=1.8 as=0.1 ps=0.9 w=0.5 l=0.15
X52 VGND.t93 a_19210_3370.t3 a_19120_3150.t2 VGND.t92 sky130_fd_pr__nfet_01v8 ad=0.1 pd=0.9 as=0.1 ps=0.9 w=0.5 l=0.15
X53 a_16900_7270.t1 VDPWR.t429 a_16510_7270.t3 VGND.t278 sky130_fd_pr__nfet_01v8 ad=0.5 pd=3 as=0.5 ps=3 w=1 l=0.15
X54 a_10740_13170.t3 a_9573_16817.t8 a_10840_11590.t2 VGND.t142 sky130_fd_pr__nfet_01v8 ad=0.1 pd=0.9 as=0.1 ps=0.9 w=0.5 l=0.2
X55 VGND.t218 VGND.t259 a_11580_15080.t7 sky130_fd_pr__pnp_05v5_W3p40L3p40
**devattr s=462400,2720
X56 VDPWR.t396 a_19210_3370.t4 a_18610_3400.t0 VDPWR.t395 sky130_fd_pr__pfet_01v8 ad=0.2 pd=1.8 as=0.2 ps=1.8 w=0.5 l=0.15
X57 VGND.t218 VGND.t258 a_11580_15080.t6 sky130_fd_pr__pnp_05v5_W3p40L3p40
**devattr s=462400,2720
X58 VDPWR.t129 PFET_GATE.t13 a_11431_12690.t8 VDPWR.t128 sky130_fd_pr__pfet_01v8 ad=0.2 pd=1.4 as=0.2 ps=1.4 w=1 l=0.15
X59 a_10710_11860.t17 a_8454_18026.t15 sky130_fd_pr__cap_mim_m3_1 l=2 w=2
X60 VDPWR.t268 VGND.t328 a_23198_3560.t1 VDPWR.t267 sky130_fd_pr__pfet_01v8 ad=1.2 pd=6.8 as=1.2 ps=6.8 w=3 l=0.15
X61 a_12490_3240.t2 a_12620_3080.t2 VGND.t315 VGND.t314 sky130_fd_pr__nfet_01v8 ad=0.2 pd=1.8 as=0.1 ps=0.9 w=0.5 l=0.15
X62 VGND.t265 VGND.t263 VGND.t265 VGND.t264 sky130_fd_pr__nfet_01v8 ad=0.3125 pd=1.75 as=0 ps=0 w=1.25 l=0.5
X63 VGND.t262 VGND.t260 VGND.t262 VGND.t261 sky130_fd_pr__nfet_01v8 ad=0.5 pd=2.5 as=0 ps=0 w=2 l=0.6
X64 a_17820_3240.t3 a_16740_3080.t4 VGND.t13 VGND.t12 sky130_fd_pr__nfet_01v8 ad=0.1 pd=0.9 as=0.1 ps=0.9 w=0.5 l=0.15
X65 a_14340_7240.t1 a_13960_7240.t3 VGND.t9 VGND.t8 sky130_fd_pr__nfet_01v8 ad=0.2 pd=1.4 as=0.4 ps=2.8 w=1 l=0.15
X66 a_13540_3080.t2 a_13650_3080.t4 VGND.t61 VGND.t60 sky130_fd_pr__nfet_01v8 ad=0.2 pd=1.8 as=0.1 ps=0.9 w=0.5 l=0.15
X67 VGND.t157 I_IN.t18 a_19930_11490.t5 VGND.t156 sky130_fd_pr__nfet_01v8 ad=0.5 pd=2.5 as=0.5 ps=2.5 w=2 l=0.6
X68 a_10710_11860.t18 a_8454_18026.t14 sky130_fd_pr__cap_mim_m3_1 l=2 w=2
X69 VDPWR.t252 a_13880_11590.t12 a_13880_11590.t13 VDPWR.t251 sky130_fd_pr__pfet_01v8 ad=0.2 pd=1.4 as=0.2 ps=1.4 w=1 l=0.2
X70 VDPWR.t359 VDPWR.t356 VDPWR.t358 VDPWR.t357 sky130_fd_pr__pfet_01v8 ad=1 pd=5 as=0 ps=0 w=2 l=0.6
X71 VGND.t55 a_18610_3400.t2 a_19830_3020.t0 VGND.t54 sky130_fd_pr__nfet_01v8 ad=0.1 pd=0.9 as=0.1 ps=0.9 w=0.5 l=0.15
X72 VGND.t126 a_19690_10220.t7 a_19690_10220.t8 VGND.t125 sky130_fd_pr__nfet_01v8 ad=0.3125 pd=1.75 as=0.3125 ps=1.75 w=1.25 l=0.5
X73 a_12520_10060.t7 a_11880_10030.t18 VDPWR.t211 VDPWR.t210 sky130_fd_pr__pfet_01v8 ad=0.6 pd=3.4 as=0.6 ps=3.4 w=3 l=0.5
X74 a_19440_11540.t12 V_CONT.t8 a_19670_10930.t5 VDPWR.t394 sky130_fd_pr__pfet_01v8 ad=0.25 pd=1.5 as=0.25 ps=1.5 w=1 l=0.15
X75 a_21720_3150.t2 a_21810_3370.t3 VGND.t207 VGND.t206 sky130_fd_pr__nfet_01v8 ad=0.2 pd=1.8 as=0.1 ps=0.9 w=0.5 l=0.15
X76 VGND.t257 VGND.t254 VGND.t256 VGND.t255 sky130_fd_pr__nfet_01v8 ad=1 pd=5 as=0 ps=0 w=2 l=0.6
X77 a_19244_9974.t8 a_19244_9974.t7 VDPWR.t131 VDPWR.t130 sky130_fd_pr__pfet_01v8 ad=0.625 pd=3 as=0.625 ps=3 w=2.5 l=0.5
X78 a_11431_12690.t7 PFET_GATE.t14 VDPWR.t391 VDPWR.t390 sky130_fd_pr__pfet_01v8 ad=0.2 pd=1.4 as=0.2 ps=1.4 w=1 l=0.15
X79 a_11880_10030.t13 VDPWR.t353 VDPWR.t355 VDPWR.t354 sky130_fd_pr__pfet_01v8 ad=0.2 pd=1.4 as=0.45 ps=2.9 w=1 l=0.15
X80 VGND.t279 VDPWR.t430 a_23198_2840.t2 VGND.t47 sky130_fd_pr__nfet_01v8 ad=0.6 pd=3.8 as=0.6 ps=3.8 w=1.5 l=0.15
X81 a_15300_6090.t0 a_13440_7240.t4 VGND.t311 VGND.t310 sky130_fd_pr__nfet_01v8 ad=0.2 pd=1.4 as=0.4 ps=2.8 w=1 l=0.15
X82 VDPWR.t413 a_23280_5000.t3 a_24238_3560.t2 VDPWR.t412 sky130_fd_pr__pfet_01v8 ad=0.8 pd=4.8 as=0.8 ps=4.8 w=2 l=1.5
X83 a_14260_6510.t1 a_13360_6090.t3 VDPWR.t159 VDPWR.t158 sky130_fd_pr__pfet_01v8 ad=0.4 pd=2.4 as=0.8 ps=4.8 w=2 l=0.15
X84 a_13750_11850.t14 a_17574_18026.t18 sky130_fd_pr__cap_mim_m3_1 l=2 w=2
X85 a_15920_7240.t1 a_15740_6090.t2 VDPWR.t109 VDPWR.t108 sky130_fd_pr__pfet_01v8 ad=0.8 pd=4.8 as=0.8 ps=4.8 w=2 l=0.15
X86 VDPWR.t70 a_13880_11590.t17 a_13750_11850.t1 VDPWR.t69 sky130_fd_pr__pfet_01v8 ad=0.2 pd=1.4 as=0.2 ps=1.4 w=1 l=0.2
X87 VDPWR.t352 VDPWR.t350 VDPWR.t352 VDPWR.t351 sky130_fd_pr__pfet_01v8 ad=0.25 pd=1.5 as=0 ps=0 w=1 l=0.15
X88 VGND.t273 a_20510_3370.t4 a_20420_3150.t2 VGND.t272 sky130_fd_pr__nfet_01v8 ad=0.1 pd=0.9 as=0.1 ps=0.9 w=0.5 l=0.15
X89 a_19790_10270.t6 a_19790_10270.t4 a_19790_10270.t5 VGND.t22 sky130_fd_pr__nfet_01v8 ad=0.25 pd=2 as=0 ps=0 w=0.5 l=0.15
X90 a_17450_6090.t10 a_23224_12716.t0 sky130_fd_pr__cap_mim_m3_1 l=10 w=10
X91 VDPWR.t183 a_10840_11590.t18 a_10710_11860.t4 VDPWR.t182 sky130_fd_pr__pfet_01v8 ad=0.2 pd=1.4 as=0.2 ps=1.4 w=1 l=0.2
X92 VDPWR.t284 a_20510_3370.t5 a_19910_3400.t1 VDPWR.t283 sky130_fd_pr__pfet_01v8 ad=0.2 pd=1.8 as=0.2 ps=1.8 w=0.5 l=0.15
X93 VDPWR.t163 PFET_GATE.t15 I_IN.t8 VDPWR.t162 sky130_fd_pr__pfet_01v8 ad=0.2 pd=1.4 as=0.2 ps=1.4 w=1 l=0.15
X94 VDPWR.t195 a_19530_3320.t2 a_19120_3150.t3 VDPWR.t194 sky130_fd_pr__pfet_01v8 ad=0.1 pd=0.9 as=0.2 ps=1.8 w=0.5 l=0.15
X95 a_16630_3080.t3 a_16960_3370.t3 VDPWR.t398 VDPWR.t397 sky130_fd_pr__pfet_01v8 ad=0.2 pd=1.8 as=0.1 ps=0.9 w=0.5 l=0.15
X96 a_21810_3370.t0 ua[1].t3 VGND.t271 VGND.t270 sky130_fd_pr__nfet_01v8 ad=0.2 pd=1.8 as=0.1 ps=0.9 w=0.5 l=0.15
X97 VGND.t11 V_CONT.t9 a_24238_2840.t0 VGND.t10 sky130_fd_pr__nfet_01v8 ad=0.4 pd=2.8 as=0.4 ps=2.8 w=1 l=0.15
X98 VGND.t174 a_19120_3150.t4 a_18610_3400.t1 VGND.t173 sky130_fd_pr__nfet_01v8 ad=0.1 pd=0.9 as=0.2 ps=1.8 w=0.5 l=0.15
X99 a_17450_6090.t2 a_19960_10960.t5 VGND.t129 VGND.t128 sky130_fd_pr__nfet_01v8 ad=0.125 pd=1 as=0.125 ps=1 w=0.5 l=0.15
X100 VGND.t313 a_19690_10220.t9 a_19790_10270.t12 VGND.t312 sky130_fd_pr__nfet_01v8 ad=0.3125 pd=1.75 as=0.3125 ps=1.75 w=1.25 l=0.5
X101 a_13880_6510.t1 a_13360_6090.t4 a_13440_6060.t1 VDPWR.t171 sky130_fd_pr__pfet_01v8 ad=0.4 pd=2.4 as=0.8 ps=4.8 w=2 l=0.15
X102 VDPWR.t375 PFET_GATE.t16 a_11431_12690.t6 VDPWR.t374 sky130_fd_pr__pfet_01v8 ad=0.2 pd=1.4 as=0.2 ps=1.4 w=1 l=0.15
X103 a_14860_3240.t3 a_13650_3080.t5 VGND.t21 VGND.t20 sky130_fd_pr__nfet_01v8 ad=0.1 pd=0.9 as=0.1 ps=0.9 w=0.5 l=0.15
X104 VGND.t40 a_19670_10930.t6 a_19960_10960.t4 VGND.t39 sky130_fd_pr__nfet_01v8 ad=0.125 pd=1 as=0.125 ps=1 w=0.5 l=0.15
X105 a_14860_3240.t2 a_13650_3080.t6 VGND.t131 VGND.t130 sky130_fd_pr__nfet_01v8 ad=0.2 pd=1.8 as=0.1 ps=0.9 w=0.5 l=0.15
X106 a_10840_11590.t14 a_10840_11590.t13 VDPWR.t217 VDPWR.t216 sky130_fd_pr__pfet_01v8 ad=0.2 pd=1.4 as=0.2 ps=1.4 w=1 l=0.2
X107 a_12490_3240.t1 a_12620_3080.t3 VGND.t114 VGND.t113 sky130_fd_pr__nfet_01v8 ad=0.1 pd=0.9 as=0.1 ps=0.9 w=0.5 l=0.15
X108 a_10740_13170.t10 a_11431_12690.t13 a_10710_11860.t10 VGND.t324 sky130_fd_pr__nfet_01v8 ad=0.1 pd=0.9 as=0.1 ps=0.9 w=0.5 l=0.2
X109 a_14260_7270.t0 a_13360_7890.t3 VDPWR.t172 VDPWR.t158 sky130_fd_pr__pfet_01v8 ad=0.4 pd=2.4 as=0.8 ps=4.8 w=2 l=0.15
X110 I_IN.t4 PFET_GATE.t17 VDPWR.t78 VDPWR.t77 sky130_fd_pr__pfet_01v8 ad=0.2 pd=1.4 as=0.2 ps=1.4 w=1 l=0.15
X111 VDPWR.t213 a_11880_10030.t19 a_9573_16817.t4 VDPWR.t212 sky130_fd_pr__pfet_01v8 ad=0.6 pd=3.4 as=0.6 ps=3.4 w=3 l=0.5
X112 a_13540_3080.t1 a_13650_3080.t7 VGND.t304 VGND.t303 sky130_fd_pr__nfet_01v8 ad=0.1 pd=0.9 as=0.1 ps=0.9 w=0.5 l=0.15
X113 a_19930_11490.t4 I_IN.t19 VGND.t184 VGND.t183 sky130_fd_pr__nfet_01v8 ad=0.5 pd=2.5 as=0.5 ps=2.5 w=2 l=0.6
X114 VDPWR.t262 a_13750_11850.t15 a_11880_10030.t7 VDPWR.t261 sky130_fd_pr__pfet_01v8 ad=0.2 pd=1.4 as=0.2 ps=1.4 w=1 l=0.2
X115 a_14040_12560.t3 a_12520_10060.t8 a_13880_11590.t3 VGND.t124 sky130_fd_pr__nfet_01v8 ad=0.1 pd=0.9 as=0.1 ps=0.9 w=0.5 l=0.2
X116 a_17450_6090.t6 a_21100_10960.t6 VDPWR.t17 VDPWR.t16 sky130_fd_pr__pfet_01v8 ad=0.25 pd=1.5 as=0.25 ps=1.5 w=1 l=0.15
X117 a_15490_3110.t1 a_13650_3080.t8 a_15380_3110.t1 VGND.t95 sky130_fd_pr__nfet_01v8 ad=0.1 pd=0.9 as=0.2 ps=1.8 w=0.5 l=0.15
X118 VDPWR.t39 a_15260_7240.t2 a_14860_6060.t0 VDPWR.t38 sky130_fd_pr__pfet_01v8 ad=0.8 pd=4.8 as=0.8 ps=4.8 w=2 l=0.15
X119 a_22130_3320.t0 a_21210_3400.t3 VDPWR.t76 VDPWR.t75 sky130_fd_pr__pfet_01v8 ad=0.2 pd=1.8 as=0.1 ps=0.9 w=0.5 l=0.15
X120 VDPWR.t103 a_18610_3400.t3 a_16740_3080.t0 VDPWR.t102 sky130_fd_pr__pfet_01v8 ad=0.1 pd=0.9 as=0.2 ps=1.8 w=0.5 l=0.15
X121 a_11880_10030.t20 VDPWR.t422 sky130_fd_pr__cap_mim_m3_1 l=2 w=2
X122 PFET_GATE.t5 a_10710_11860.t19 VDPWR.t280 VDPWR.t279 sky130_fd_pr__pfet_01v8 ad=0.2 pd=1.4 as=0.2 ps=1.4 w=1 l=0.2
X123 a_13880_7270.t0 a_13360_7890.t4 a_13440_7240.t1 VDPWR.t171 sky130_fd_pr__pfet_01v8 ad=0.4 pd=2.4 as=0.8 ps=4.8 w=2 l=0.15
X124 VGND.t286 a_13440_7240.t5 a_13360_7890.t1 VGND.t285 sky130_fd_pr__nfet_01v8 ad=0.4 pd=2.8 as=0.2 ps=1.4 w=1 l=0.15
X125 VDPWR.t5 a_20830_3320.t2 a_20420_3150.t3 VDPWR.t4 sky130_fd_pr__pfet_01v8 ad=0.1 pd=0.9 as=0.2 ps=1.8 w=0.5 l=0.15
X126 a_14040_12560.t10 a_12520_10060.t9 a_13880_11590.t16 VGND.t293 sky130_fd_pr__nfet_01v8 ad=0.1 pd=0.9 as=0.1 ps=0.9 w=0.5 l=0.2
X127 VDPWR.t349 VDPWR.t347 VDPWR.t349 VDPWR.t348 sky130_fd_pr__pfet_01v8 ad=0.25 pd=1.5 as=0 ps=0 w=1 l=0.15
X128 VGND.t24 a_20420_3150.t4 a_19910_3400.t0 VGND.t23 sky130_fd_pr__nfet_01v8 ad=0.1 pd=0.9 as=0.2 ps=1.8 w=0.5 l=0.15
X129 VDPWR.t278 a_10710_11860.t20 PFET_GATE.t4 VDPWR.t277 sky130_fd_pr__pfet_01v8 ad=0.2 pd=1.4 as=0.2 ps=1.4 w=1 l=0.2
X130 a_11880_10030.t21 VDPWR.t423 sky130_fd_pr__cap_mim_m3_1 l=2 w=2
X131 a_10740_13170.t5 a_11431_12690.t14 a_10710_11860.t3 VGND.t74 sky130_fd_pr__nfet_01v8 ad=0.1 pd=0.9 as=0.2 ps=1.8 w=0.5 l=0.2
X132 a_22430_3020.t1 a_21810_3370.t4 a_22130_3320.t1 VGND.t141 sky130_fd_pr__nfet_01v8 ad=0.1 pd=0.9 as=0.2 ps=1.8 w=0.5 l=0.15
X133 a_17580_6090.t4 a_17290_6090.t2 sky130_fd_pr__cap_mim_m3_1 l=6.3 w=5.2
X134 a_20510_3370.t2 a_21210_3400.t4 VDPWR.t74 VDPWR.t73 sky130_fd_pr__pfet_01v8 ad=0.2 pd=1.8 as=0.1 ps=0.9 w=0.5 l=0.15
X135 a_10710_11860.t21 a_8454_18026.t13 sky130_fd_pr__cap_mim_m3_1 l=2 w=2
X136 a_17290_6090.t0 a_16900_6090.t3 VGND.t297 VGND.t296 sky130_fd_pr__nfet_01v8 ad=0.5 pd=3 as=0.5 ps=3 w=1 l=0.15
X137 a_16510_6090.t0 a_13440_6060.t4 VGND.t26 VGND.t25 sky130_fd_pr__nfet_01v8 ad=0.5 pd=3 as=0.5 ps=3 w=1 l=0.15
X138 a_11160_14080.t5 a_11880_10030.t22 VDPWR.t367 VDPWR.t366 sky130_fd_pr__pfet_01v8 ad=0.6 pd=3.4 as=0.6 ps=3.4 w=3 l=0.5
X139 VGND.t38 a_10354_16286.t0 VGND.t37 sky130_fd_pr__res_xhigh_po_0p35 l=17.96
X140 VDPWR.t8 a_21100_10960.t7 a_17450_6090.t5 VDPWR.t7 sky130_fd_pr__pfet_01v8 ad=0.25 pd=1.5 as=0.25 ps=1.5 w=1 l=0.15
X141 VDPWR.t292 a_13880_11590.t18 a_13750_11850.t9 VDPWR.t291 sky130_fd_pr__pfet_01v8 ad=0.2 pd=1.4 as=0.2 ps=1.4 w=1 l=0.2
X142 a_10740_13170.t8 a_11431_12690.t15 a_10710_11860.t8 VGND.t269 sky130_fd_pr__nfet_01v8 ad=0.1 pd=0.9 as=0.1 ps=0.9 w=0.5 l=0.2
X143 a_13360_6090.t0 ua[0].t1 VGND.t149 VGND.t148 sky130_fd_pr__nfet_01v8 ad=0.2 pd=1.4 as=0.4 ps=2.8 w=1 l=0.15
X144 a_10710_11860.t22 a_8454_18026.t12 sky130_fd_pr__cap_mim_m3_1 l=2 w=2
X145 a_16960_3370.t2 a_16740_3080.t5 a_17430_3110.t1 VGND.t118 sky130_fd_pr__nfet_01v8 ad=0.2 pd=1.8 as=0.1 ps=0.9 w=0.5 l=0.15
X146 VGND.t281 VDPWR.t431 a_10740_13170.t9 VGND.t280 sky130_fd_pr__nfet_01v8 ad=1 pd=5.8 as=1 ps=5.8 w=2.5 l=5
X147 a_13750_11850.t16 a_17574_18026.t17 sky130_fd_pr__cap_mim_m3_1 l=2 w=2
X148 a_13240_14080.t0 a_11160_14080.t0 a_11160_14080.t1 VGND.t190 sky130_fd_pr__nfet_01v8 ad=0.2 pd=1.4 as=0.4 ps=2.8 w=1 l=10
X149 VGND.t301 a_12620_3080.t4 a_15570_3080.t0 VGND.t300 sky130_fd_pr__nfet_01v8 ad=0.2 pd=1.8 as=0.2 ps=1.8 w=0.5 l=0.15
X150 VGND.t253 VGND.t250 VGND.t252 VGND.t251 sky130_fd_pr__nfet_01v8 ad=1 pd=5 as=0 ps=0 w=2 l=0.6
X151 VGND.t34 a_19690_10220.t10 a_19790_10270.t11 VGND.t33 sky130_fd_pr__nfet_01v8 ad=0.3125 pd=1.75 as=0.3125 ps=1.75 w=1.25 l=0.5
X152 a_20810_11490.t3 a_20810_11490.t2 VDPWR.t243 VDPWR.t242 sky130_fd_pr__pfet_01v8 ad=0.25 pd=1.5 as=0.25 ps=1.5 w=1 l=0.15
X153 VGND.t214 VGND.t242 a_11580_15080.t5 sky130_fd_pr__pnp_05v5_W3p40L3p40
**devattr s=462400,2720
X154 VDPWR.t346 VDPWR.t344 VDPWR.t346 VDPWR.t345 sky130_fd_pr__pfet_01v8 ad=0.625 pd=3 as=0 ps=0 w=2.5 l=0.5
X155 VDPWR.t33 a_14280_3560.t3 a_14230_3430.t1 VDPWR.t32 sky130_fd_pr__pfet_01v8 ad=0.1 pd=0.9 as=0.1 ps=0.9 w=0.5 l=0.15
X156 a_13750_11850.t17 a_17574_18026.t16 sky130_fd_pr__cap_mim_m3_1 l=2 w=2
X157 a_11880_10030.t6 a_13750_11850.t18 VDPWR.t260 VDPWR.t259 sky130_fd_pr__pfet_01v8 ad=0.2 pd=1.4 as=0.2 ps=1.4 w=1 l=0.2
X158 a_16900_6090.t1 a_16510_6090.t2 VDPWR.t230 VDPWR.t229 sky130_fd_pr__pfet_01v8 ad=1 pd=5 as=1 ps=5 w=2 l=0.15
X159 VGND.t116 a_15590_7240.t2 a_15260_7240.t0 VGND.t115 sky130_fd_pr__nfet_01v8 ad=0.4 pd=2.8 as=0.4 ps=2.8 w=1 l=0.15
X160 a_19690_10220.t6 a_19690_10220.t5 VGND.t167 VGND.t166 sky130_fd_pr__nfet_01v8 ad=0.3125 pd=1.75 as=0.3125 ps=1.75 w=1.25 l=0.5
X161 a_19960_10960.t2 a_19930_11490.t6 a_19440_11540.t0 VDPWR.t60 sky130_fd_pr__pfet_01v8 ad=0.25 pd=1.5 as=0.25 ps=1.5 w=1 l=0.15
X162 VDPWR.t177 a_13440_6060.t5 a_15300_6510.t2 VDPWR.t176 sky130_fd_pr__pfet_01v8 ad=0.8 pd=4.8 as=0.4 ps=2.4 w=2 l=0.15
X163 VDPWR.t89 a_19244_9974.t5 a_19244_9974.t6 VDPWR.t88 sky130_fd_pr__pfet_01v8 ad=0.625 pd=3 as=0.625 ps=3 w=2.5 l=0.5
X164 a_11880_10030.t23 VDPWR.t368 sky130_fd_pr__cap_mim_m3_1 l=2 w=2
X165 a_14992_19436.t0 V_CONT.t4 VGND.t46 sky130_fd_pr__res_xhigh_po_0p35 l=7.52
X166 a_17580_7270.t0 a_17290_7270.t3 I_IN.t7 VGND.t110 sky130_fd_pr__nfet_01v8 ad=0.5 pd=3 as=0.5 ps=3 w=1 l=0.15
X167 VDPWR.t387 a_11880_10030.t24 a_9573_16817.t3 VDPWR.t386 sky130_fd_pr__pfet_01v8 ad=0.6 pd=3.4 as=0.6 ps=3.4 w=3 l=0.5
X168 VDPWR.t121 a_23280_5000.t1 a_23280_5000.t2 VDPWR.t120 sky130_fd_pr__pfet_01v8 ad=0.8 pd=4.8 as=0.8 ps=4.8 w=2 l=1.5
X169 a_14780_6510.t0 a_13960_6060.t3 a_14340_6060.t2 VDPWR.t132 sky130_fd_pr__pfet_01v8 ad=0.4 pd=2.4 as=0.8 ps=4.8 w=2 l=0.15
X170 VGND.t73 a_21810_3370.t5 a_21720_3150.t1 VGND.t72 sky130_fd_pr__nfet_01v8 ad=0.1 pd=0.9 as=0.1 ps=0.9 w=0.5 l=0.15
X171 a_11880_10030.t25 VDPWR.t388 sky130_fd_pr__cap_mim_m3_1 l=2 w=2
X172 a_17580_7270.t3 a_17290_7270.t0 sky130_fd_pr__cap_mim_m3_1 l=3.8 w=2.7
X173 VDPWR.t62 a_21810_3370.t6 a_21210_3400.t0 VDPWR.t61 sky130_fd_pr__pfet_01v8 ad=0.2 pd=1.8 as=0.2 ps=1.8 w=0.5 l=0.15
X174 a_13880_11590.t11 a_13880_11590.t10 VDPWR.t127 VDPWR.t126 sky130_fd_pr__pfet_01v8 ad=0.2 pd=1.4 as=0.2 ps=1.4 w=1 l=0.2
X175 VGND.t218 VGND.t246 a_12520_10060.t3 sky130_fd_pr__pnp_05v5_W3p40L3p40
**devattr s=462400,2720
X176 PFET_GATE.t3 a_10710_11860.t23 VDPWR.t276 VDPWR.t275 sky130_fd_pr__pfet_01v8 ad=0.2 pd=1.4 as=0.2 ps=1.4 w=1 l=0.2
X177 VDPWR.t343 VDPWR.t341 VDPWR.t343 VDPWR.t342 sky130_fd_pr__pfet_01v8 ad=0.5 pd=2.5 as=0 ps=0 w=2 l=0.6
X178 a_8454_18026.t0 PFET_GATE.t0 VGND.t155 sky130_fd_pr__res_high_po_0p35 l=2.05
X179 VGND.t159 a_19960_10960.t6 a_17450_6090.t3 VGND.t158 sky130_fd_pr__nfet_01v8 ad=0.125 pd=1 as=0.125 ps=1 w=0.5 l=0.15
X180 a_10710_11860.t24 a_8454_18026.t11 sky130_fd_pr__cap_mim_m3_1 l=2 w=2
X181 a_19790_10270.t10 a_19690_10220.t11 VGND.t299 VGND.t298 sky130_fd_pr__nfet_01v8 ad=0.3125 pd=1.75 as=0.3125 ps=1.75 w=1.25 l=0.5
X182 a_14040_12560.t7 a_10354_16286.t7 a_13750_11850.t6 VGND.t211 sky130_fd_pr__nfet_01v8 ad=0.1 pd=0.9 as=0.1 ps=0.9 w=0.5 l=0.2
X183 a_16900_7270.t0 VGND.t329 a_16510_7270.t2 VDPWR.t229 sky130_fd_pr__pfet_01v8 ad=1 pd=5 as=1 ps=5 w=2 l=0.15
X184 a_17820_3240.t2 a_16740_3080.t6 VGND.t163 VGND.t162 sky130_fd_pr__nfet_01v8 ad=0.2 pd=1.8 as=0.1 ps=0.9 w=0.5 l=0.15
X185 a_9573_16817.t6 VDPWR.t338 VDPWR.t340 VDPWR.t339 sky130_fd_pr__pfet_01v8 ad=0.6 pd=3.4 as=1.2 ps=6.8 w=3 l=0.5
X186 VGND.t249 VGND.t247 VGND.t249 VGND.t248 sky130_fd_pr__nfet_01v8 ad=0.125 pd=1 as=0 ps=0 w=0.5 l=0.15
X187 VGND.t330 a_14992_19436.t1 sky130_fd_pr__cap_mim_m3_1 l=60 w=69.8
X188 a_10710_11860.t25 a_8454_18026.t10 sky130_fd_pr__cap_mim_m3_1 l=2 w=2
X189 VGND.t245 VGND.t243 VGND.t245 VGND.t244 sky130_fd_pr__nfet_01v8 ad=0.5 pd=2.5 as=0 ps=0 w=2 l=0.6
X190 a_10710_11860.t9 a_10840_11590.t19 VDPWR.t286 VDPWR.t285 sky130_fd_pr__pfet_01v8 ad=0.2 pd=1.4 as=0.2 ps=1.4 w=1 l=0.2
X191 a_13750_11850.t19 a_17574_18026.t15 sky130_fd_pr__cap_mim_m3_1 l=2 w=2
X192 a_14780_7270.t1 a_13960_7240.t4 a_14340_7240.t2 VDPWR.t132 sky130_fd_pr__pfet_01v8 ad=0.4 pd=2.4 as=0.8 ps=4.8 w=2 l=0.15
X193 VGND.t5 a_14340_7240.t3 a_13960_7240.t0 VGND.t4 sky130_fd_pr__nfet_01v8 ad=0.4 pd=2.8 as=0.2 ps=1.4 w=1 l=0.15
X194 a_13540_3080.t3 a_13870_3370.t3 VDPWR.t405 VDPWR.t404 sky130_fd_pr__pfet_01v8 ad=0.2 pd=1.8 as=0.1 ps=0.9 w=0.5 l=0.15
X195 a_11431_12690.t5 PFET_GATE.t18 VDPWR.t223 VDPWR.t222 sky130_fd_pr__pfet_01v8 ad=0.2 pd=1.4 as=0.2 ps=1.4 w=1 l=0.15
X196 a_14040_12560.t5 a_10354_16286.t8 a_13750_11850.t5 VGND.t210 sky130_fd_pr__nfet_01v8 ad=0.1 pd=0.9 as=0.1 ps=0.9 w=0.5 l=0.2
X197 VDPWR.t119 a_19910_3400.t3 a_19210_3370.t1 VDPWR.t118 sky130_fd_pr__pfet_01v8 ad=0.1 pd=0.9 as=0.2 ps=1.8 w=0.5 l=0.15
X198 a_10710_11860.t0 a_10840_11590.t20 VDPWR.t1 VDPWR.t0 sky130_fd_pr__pfet_01v8 ad=0.2 pd=1.4 as=0.2 ps=1.4 w=1 l=0.2
X199 a_10354_16286.t5 a_11880_10030.t26 VDPWR.t417 VDPWR.t416 sky130_fd_pr__pfet_01v8 ad=0.6 pd=3.4 as=0.6 ps=3.4 w=3 l=0.5
X200 a_13750_11850.t20 a_17574_18026.t14 sky130_fd_pr__cap_mim_m3_1 l=2 w=2
X201 a_16740_3080.t2 a_18610_3400.t4 VGND.t172 VGND.t171 sky130_fd_pr__nfet_01v8 ad=0.2 pd=1.8 as=0.1 ps=0.9 w=0.5 l=0.15
X202 VGND.t241 VGND.t238 VGND.t240 VGND.t239 sky130_fd_pr__nfet_01v8 ad=0.25 pd=2 as=0 ps=0 w=0.5 l=0.15
X203 VGND.t317 a_13960_7240.t5 a_13440_7240.t2 VGND.t316 sky130_fd_pr__nfet_01v8 ad=0.4 pd=2.8 as=0.2 ps=1.4 w=1 l=0.15
X204 VGND.t201 a_21720_3150.t4 a_21210_3400.t1 VGND.t200 sky130_fd_pr__nfet_01v8 ad=0.1 pd=0.9 as=0.2 ps=1.8 w=0.5 l=0.15
X205 a_13750_11850.t21 a_17574_18026.t13 sky130_fd_pr__cap_mim_m3_1 l=2 w=2
X206 a_10840_11590.t12 a_10840_11590.t11 VDPWR.t95 VDPWR.t94 sky130_fd_pr__pfet_01v8 ad=0.2 pd=1.4 as=0.2 ps=1.4 w=1 l=0.2
X207 a_13960_6060.t2 a_13360_6090.t5 VGND.t292 VGND.t291 sky130_fd_pr__nfet_01v8 ad=0.2 pd=1.4 as=0.4 ps=2.8 w=1 l=0.15
X208 a_19440_11540.t6 a_19440_11540.t4 a_19440_11540.t5 VDPWR.t389 sky130_fd_pr__pfet_01v8 ad=0.5 pd=3 as=0 ps=0 w=1 l=0.15
X209 a_10710_11860.t6 a_11431_12690.t16 a_10740_13170.t7 VGND.t196 sky130_fd_pr__nfet_01v8 ad=0.1 pd=0.9 as=0.1 ps=0.9 w=0.5 l=0.2
X210 VGND.t89 a_15920_7240.t2 a_15590_7240.t0 VGND.t88 sky130_fd_pr__nfet_01v8 ad=0.4 pd=2.8 as=0.4 ps=2.8 w=1 l=0.15
X211 VDPWR.t419 a_11880_10030.t27 a_12520_10060.t6 VDPWR.t418 sky130_fd_pr__pfet_01v8 ad=0.6 pd=3.4 as=0.6 ps=3.4 w=3 l=0.5
X212 a_11880_10030.t28 VDPWR.t196 sky130_fd_pr__cap_mim_m3_1 l=2 w=2
X213 a_15920_7240.t0 a_15740_6090.t3 VGND.t36 VGND.t35 sky130_fd_pr__nfet_01v8 ad=0.4 pd=2.8 as=0.4 ps=2.8 w=1 l=0.15
X214 a_21810_3370.t1 ua[1].t4 VDPWR.t381 VDPWR.t380 sky130_fd_pr__pfet_01v8 ad=0.2 pd=1.8 as=0.1 ps=0.9 w=0.5 l=0.15
X215 VDPWR.t19 a_17450_6090.t11 a_19930_11490.t3 VDPWR.t18 sky130_fd_pr__pfet_01v8 ad=0.5 pd=2.5 as=0.5 ps=2.5 w=2 l=0.6
X216 a_15740_6090.t1 a_15300_6510.t3 VDPWR.t415 VDPWR.t414 sky130_fd_pr__pfet_01v8 ad=0.8 pd=4.8 as=0.8 ps=4.8 w=2 l=0.15
X217 a_19790_10270.t1 a_19930_11490.t7 a_21100_10960.t1 VGND.t53 sky130_fd_pr__nfet_01v8 ad=0.125 pd=1 as=0.125 ps=1 w=0.5 l=0.15
X218 VGND.t3 a_16740_3080.t7 a_16630_3080.t1 VGND.t2 sky130_fd_pr__nfet_01v8 ad=0.1 pd=0.9 as=0.1 ps=0.9 w=0.5 l=0.15
X219 a_18230_3320.t1 a_13650_3080.t9 VDPWR.t168 VDPWR.t167 sky130_fd_pr__pfet_01v8 ad=0.2 pd=1.8 as=0.1 ps=0.9 w=0.5 l=0.15
X220 I_IN.t11 PFET_GATE.t19 VDPWR.t205 VDPWR.t204 sky130_fd_pr__pfet_01v8 ad=0.2 pd=1.4 as=0.2 ps=1.4 w=1 l=0.15
X221 a_13360_6090.t1 a_13440_6060.t6 a_13360_6510.t1 VDPWR.t11 sky130_fd_pr__pfet_01v8 ad=0.8 pd=4.8 as=0.4 ps=2.4 w=2 l=0.15
X222 a_17450_6090.t12 a_23224_9624.t0 sky130_fd_pr__cap_mim_m3_1 l=10 w=10
X223 a_23310_2840.t1 ua[1].t5 a_23198_2840.t0 VGND.t94 sky130_fd_pr__nfet_01v8 ad=0.4 pd=2.8 as=0.4 ps=2.8 w=1 l=0.16
X224 a_13120_3110.t1 a_12620_3080.t5 a_13010_3110.t1 VGND.t307 sky130_fd_pr__nfet_01v8 ad=0.1 pd=0.9 as=0.2 ps=1.8 w=0.5 l=0.15
X225 a_13440_6060.t0 a_13360_6090.t6 VGND.t15 VGND.t14 sky130_fd_pr__nfet_01v8 ad=0.2 pd=1.4 as=0.4 ps=2.8 w=1 l=0.15
X226 VDPWR.t198 a_11880_10030.t29 a_10354_16286.t4 VDPWR.t197 sky130_fd_pr__pfet_01v8 ad=0.6 pd=3.4 as=0.6 ps=3.4 w=3 l=0.5
X227 VGND.t331 V_CONT.t7 sky130_fd_pr__cap_mim_m3_1 l=60 w=13.8
X228 V_CONT.t6 a_17580_7270.t4 VGND.t194 VGND.t193 sky130_fd_pr__nfet_01v8 ad=0.5 pd=2.5 as=0.5 ps=2.5 w=2 l=0.6
X229 a_10710_11860.t26 a_8454_18026.t9 sky130_fd_pr__cap_mim_m3_1 l=2 w=2
X230 a_11431_12690.t4 PFET_GATE.t20 VDPWR.t25 VDPWR.t24 sky130_fd_pr__pfet_01v8 ad=0.2 pd=1.4 as=0.2 ps=1.4 w=1 l=0.15
X231 a_11431_12690.t11 VDPWR.t335 VDPWR.t337 VDPWR.t336 sky130_fd_pr__pfet_01v8 ad=0.2 pd=1.4 as=0.4 ps=2.8 w=1 l=0.15
X232 a_11880_10030.t2 a_11160_14080.t6 a_12520_10060.t2 VDPWR.t219 sky130_fd_pr__pfet_01v8 ad=0.2 pd=1.4 as=0.2 ps=1.4 w=1 l=0.15
X233 VDPWR.t193 a_20810_11490.t0 a_20810_11490.t1 VDPWR.t192 sky130_fd_pr__pfet_01v8 ad=0.25 pd=1.5 as=0.25 ps=1.5 w=1 l=0.15
X234 VDPWR.t45 a_15380_3110.t2 a_14860_3240.t0 VDPWR.t44 sky130_fd_pr__pfet_01v8 ad=0.1 pd=0.9 as=0.2 ps=1.8 w=0.5 l=0.15
X235 VDPWR.t334 VDPWR.t332 a_11880_10030.t12 VDPWR.t333 sky130_fd_pr__pfet_01v8 ad=0.4 pd=2.8 as=0.2 ps=1.4 w=1 l=0.15
X236 VDPWR.t136 a_19244_9974.t9 a_19440_11540.t3 VDPWR.t135 sky130_fd_pr__pfet_01v8 ad=0.625 pd=3 as=0.625 ps=3 w=2.5 l=0.5
X237 a_18530_3110.t0 a_16740_3080.t8 a_18230_3320.t0 VGND.t119 sky130_fd_pr__nfet_01v8 ad=0.1 pd=0.9 as=0.2 ps=1.8 w=0.5 l=0.15
X238 a_13750_11850.t2 a_13880_11590.t19 VDPWR.t185 VDPWR.t184 sky130_fd_pr__pfet_01v8 ad=0.2 pd=1.4 as=0.2 ps=1.4 w=1 l=0.2
X239 a_13750_11850.t22 a_17574_18026.t12 sky130_fd_pr__cap_mim_m3_1 l=2 w=2
X240 a_14450_3110.t1 a_12620_3080.t6 a_14120_3110.t1 VGND.t127 sky130_fd_pr__nfet_01v8 ad=0.1 pd=0.9 as=0.1 ps=0.9 w=0.5 l=0.15
X241 a_10354_16286.t3 a_11880_10030.t30 VDPWR.t146 VDPWR.t145 sky130_fd_pr__pfet_01v8 ad=0.6 pd=3.4 as=0.6 ps=3.4 w=3 l=0.5
X242 a_19244_9974.t4 a_19244_9974.t3 VDPWR.t68 VDPWR.t67 sky130_fd_pr__pfet_01v8 ad=0.625 pd=3 as=0.625 ps=3 w=2.5 l=0.5
X243 a_13360_7890.t0 a_13440_7240.t6 a_13360_7270.t0 VDPWR.t11 sky130_fd_pr__pfet_01v8 ad=0.8 pd=4.8 as=0.4 ps=2.4 w=2 l=0.15
X244 VGND.t103 a_19670_10930.t1 a_19670_10930.t2 VGND.t102 sky130_fd_pr__nfet_01v8 ad=0.125 pd=1 as=0.125 ps=1 w=0.5 l=0.15
X245 a_14040_12560.t0 a_12520_10060.t10 a_13880_11590.t0 VGND.t44 sky130_fd_pr__nfet_01v8 ad=0.1 pd=0.9 as=0.2 ps=1.8 w=0.5 l=0.2
X246 a_13750_11850.t23 a_17574_18026.t11 sky130_fd_pr__cap_mim_m3_1 l=2 w=2
X247 a_11160_14080.t4 a_11880_10030.t31 VDPWR.t148 VDPWR.t147 sky130_fd_pr__pfet_01v8 ad=0.6 pd=3.4 as=0.6 ps=3.4 w=3 l=0.5
X248 a_11880_10030.t5 a_13750_11850.t24 VDPWR.t258 VDPWR.t257 sky130_fd_pr__pfet_01v8 ad=0.2 pd=1.4 as=0.2 ps=1.4 w=1 l=0.2
X249 VGND.t105 a_16630_3080.t4 a_16270_3380.t1 VGND.t104 sky130_fd_pr__nfet_01v8 ad=0.1 pd=0.9 as=0.2 ps=1.8 w=0.5 l=0.15
X250 VGND.t80 a_19910_3400.t4 a_21130_3020.t1 VGND.t79 sky130_fd_pr__nfet_01v8 ad=0.1 pd=0.9 as=0.1 ps=0.9 w=0.5 l=0.15
X251 I_IN.t1 VDPWR.t329 VDPWR.t331 VDPWR.t330 sky130_fd_pr__pfet_01v8 ad=0.2 pd=1.4 as=0.4 ps=2.8 w=1 l=0.15
X252 I_IN.t3 PFET_GATE.t21 VDPWR.t64 VDPWR.t63 sky130_fd_pr__pfet_01v8 ad=0.2 pd=1.4 as=0.2 ps=1.4 w=1 l=0.15
X253 VGND.t237 VGND.t235 VGND.t237 VGND.t236 sky130_fd_pr__nfet_01v8 ad=0.125 pd=1 as=0 ps=0 w=0.5 l=0.15
X254 a_9573_16817.t2 a_11880_10030.t32 VDPWR.t91 VDPWR.t90 sky130_fd_pr__pfet_01v8 ad=0.6 pd=3.4 as=0.6 ps=3.4 w=3 l=0.5
X255 a_21100_10960.t0 a_20810_11490.t7 VDPWR.t29 VDPWR.t28 sky130_fd_pr__pfet_01v8 ad=0.25 pd=1.5 as=0.25 ps=1.5 w=1 l=0.15
X256 VGND.t234 VGND.t231 VGND.t233 VGND.t232 sky130_fd_pr__nfet_01v8 ad=0.625 pd=3.5 as=0 ps=0 w=1.25 l=0.5
X257 a_23310_2840.t0 ua[1].t6 a_23198_3560.t0 VDPWR.t166 sky130_fd_pr__pfet_01v8 ad=0.8 pd=4.8 as=0.8 ps=4.8 w=2 l=0.16
X258 a_11880_10030.t4 a_13750_11850.t25 VDPWR.t256 VDPWR.t255 sky130_fd_pr__pfet_01v8 ad=0.2 pd=1.4 as=0.2 ps=1.4 w=1 l=0.2
X259 a_19120_3150.t1 a_19210_3370.t5 VGND.t99 VGND.t98 sky130_fd_pr__nfet_01v8 ad=0.2 pd=1.8 as=0.1 ps=0.9 w=0.5 l=0.15
X260 a_13750_11850.t4 a_10354_16286.t9 a_14040_12560.t4 VGND.t209 sky130_fd_pr__nfet_01v8 ad=0.2 pd=1.8 as=0.1 ps=0.9 w=0.5 l=0.2
X261 a_17580_6090.t2 a_17290_6090.t3 a_17450_6090.t0 VDPWR.t6 sky130_fd_pr__pfet_01v8 ad=1 pd=5 as=1 ps=5 w=2 l=0.15
X262 a_19440_11540.t10 a_19244_9974.t10 VDPWR.t170 VDPWR.t169 sky130_fd_pr__pfet_01v8 ad=0.625 pd=3 as=0.625 ps=3 w=2.5 l=0.5
X263 a_15570_3080.t2 a_12620_3080.t7 VDPWR.t59 VDPWR.t58 sky130_fd_pr__pfet_01v8 ad=0.2 pd=1.8 as=0.1 ps=0.9 w=0.5 l=0.15