* PEX produced on Mon Sep  1 08:25:58 PM CEST 2025 using /foss/tools/osic-multitool/iic-pex.sh with m=3 and s=1
* NGSPICE file created from project_magic.ext - technology: sky130A

.subckt project_magic ua[0] ua[1] VDPWR VGND
X0 VDPWR.t343 VDPWR.t340 VDPWR.t342 VDPWR.t341 sky130_fd_pr__pfet_01v8 ad=0.5 pd=2.5 as=0 ps=0 w=2 l=0.6
X1 VDPWR.t379 a_19190_29050.t11 a_14348_27710.t8 VDPWR.t378 sky130_fd_pr__pfet_01v8 ad=0.2 pd=1.4 as=0.2 ps=1.4 w=1 l=0.2
X2 a_19190_31850.t10 a_19190_31610.t17 VDPWR.t222 VDPWR.t221 sky130_fd_pr__pfet_01v8 ad=0.2 pd=1.4 as=0.2 ps=1.4 w=1 l=0.2
X3 w_13193_29093.t277 a_26300_25010.t3 a_26300_25670.t1 w_13193_29093.t276 sky130_fd_pr__nfet_01v8 ad=0.1 pd=0.9 as=0.2 ps=1.8 w=0.5 l=0.15
X4 a_18974_25970.t8 a_18974_25060.t8 sky130_fd_pr__res_generic_po w=0.33 l=2.4
X5 a_18180_33430.t8 VDPWR.t428 w_13193_29093.t268 w_13193_29093.t267 sky130_fd_pr__nfet_01v8 ad=1 pd=5.8 as=1 ps=5.8 w=2.5 l=5
X6 a_14348_27710.t14 VDPWR.t185 sky130_fd_pr__cap_mim_m3_1 l=2 w=2
X7 a_26640_21760.t0 a_25860_20180.t3 VDPWR.t123 VDPWR.t122 sky130_fd_pr__pfet_01v8 ad=0.8 pd=4.8 as=0.8 ps=4.8 w=2 l=1.5
X8 a_23100_30460.t1 a_24280_30060.t2 VDPWR.t235 VDPWR.t234 sky130_fd_pr__pfet_01v8 ad=0.8 pd=4.8 as=0.8 ps=4.8 w=2 l=0.15
X9 w_13193_29093.t53 w_13193_29093.t104 a_14730_30630.t1 sky130_fd_pr__pnp_05v5_W3p40L3p40
**devattr s=462400,2720
X10 w_13193_29093.t252 a_19910_25340.t3 a_19910_25340.t4 w_13193_29093.t4 sky130_fd_pr__nfet_01v8 ad=0.125 pd=1 as=0.125 ps=1 w=0.5 l=0.15
X11 a_20480_25210.t12 a_19910_24200.t6 a_19040_22530.t2 VDPWR.t251 sky130_fd_pr__pfet_01v8 ad=0.25 pd=1.5 as=0.25 ps=1.5 w=1 l=0.15
X12 VDPWR.t366 a_18974_25970.t9 a_20480_25210.t3 VDPWR.t365 sky130_fd_pr__pfet_01v8 ad=0.625 pd=3 as=0.625 ps=3 w=2.5 l=0.5
X13 VDPWR.t263 a_26320_28790.t2 a_26420_30200.t2 VDPWR.t262 sky130_fd_pr__pfet_01v8 ad=0.1 pd=0.9 as=0.2 ps=1.8 w=0.5 l=0.15
X14 a_19190_29050.t12 a_13532_27710.t20 sky130_fd_pr__cap_mim_m3_1 l=2 w=2
X15 a_19940_23090.t6 a_23100_27770.t2 a_23130_27670.t0 w_13193_29093.t150 sky130_fd_pr__nfet_01v8 ad=0.5 pd=3 as=0.5 ps=3 w=1 l=0.15
X16 a_23100_30980.t1 a_23100_30570.t3 a_23550_30490.t0 VDPWR.t86 sky130_fd_pr__pfet_01v8 ad=0.8 pd=4.8 as=0.4 ps=2.4 w=2 l=0.15
X17 a_19250_24340.t10 a_18974_25060.t9 w_13193_29093.t279 w_13193_29093.t13 sky130_fd_pr__nfet_01v8 ad=0.3125 pd=1.75 as=0.3125 ps=1.75 w=1.25 l=0.5
X18 VDPWR.t409 a_19190_29290.t17 a_19190_29050.t10 VDPWR.t408 sky130_fd_pr__pfet_01v8 ad=0.2 pd=1.4 as=0.2 ps=1.4 w=1 l=0.2
X19 a_17540_31010.t5 a_14348_27710.t15 VDPWR.t187 VDPWR.t186 sky130_fd_pr__pfet_01v8 ad=0.6 pd=3.4 as=0.6 ps=3.4 w=3 l=0.5
X20 VDPWR.t339 VDPWR.t337 a_14348_27710.t13 VDPWR.t338 sky130_fd_pr__pfet_01v8 ad=0.4 pd=2.8 as=0.2 ps=1.4 w=1 l=0.2
X21 VDPWR.t37 a_14348_27710.t16 a_14730_30630.t7 VDPWR.t36 sky130_fd_pr__pfet_01v8 ad=0.6 pd=3.4 as=0.6 ps=3.4 w=3 l=0.5
X22 a_14348_27710.t9 VDPWR.t429 w_13193_29093.t266 w_13193_29093.t265 sky130_fd_pr__nfet_01v8 ad=1 pd=5.8 as=1.01 ps=6.15 w=2.5 l=5
X23 a_14348_27710.t17 VDPWR.t38 sky130_fd_pr__cap_mim_m3_1 l=2 w=2
X24 a_26420_26340.t0 a_26390_26310.t3 a_26420_26230.t0 w_13193_29093.t132 sky130_fd_pr__nfet_01v8 ad=0.2 pd=1.8 as=0.1 ps=0.9 w=0.5 l=0.15
X25 a_14730_30630.t6 a_14348_27710.t18 VDPWR.t381 VDPWR.t380 sky130_fd_pr__pfet_01v8 ad=0.6 pd=3.4 as=0.6 ps=3.4 w=3 l=0.5
X26 a_19190_29290.t13 a_14730_30630.t8 a_18180_28430.t4 w_13193_29093.t22 sky130_fd_pr__nfet_01v8 ad=0.2 pd=1.8 as=0.1 ps=0.9 w=0.5 l=0.2
X27 VDPWR.t383 a_14348_27710.t19 a_14990_33500.t4 VDPWR.t382 sky130_fd_pr__pfet_01v8 ad=0.6 pd=3.4 as=0.6 ps=3.4 w=3 l=0.5
X28 w_13193_29093.t103 w_13193_29093.t100 w_13193_29093.t102 w_13193_29093.t101 sky130_fd_pr__nfet_01v8 ad=0.5 pd=2.5 as=0 ps=0 w=2 l=0.6
X29 a_26310_26200.t0 a_26390_27520.t2 w_13193_29093.t255 w_13193_29093.t254 sky130_fd_pr__nfet_01v8 ad=0.2 pd=1.8 as=0.2 ps=1.8 w=0.5 l=0.15
X30 a_24310_31390.t0 a_24280_30570.t3 VDPWR.t248 VDPWR.t178 sky130_fd_pr__pfet_01v8 ad=0.4 pd=2.4 as=0.8 ps=4.8 w=2 l=0.15
X31 a_14990_33500.t3 a_14348_27710.t20 VDPWR.t64 VDPWR.t63 sky130_fd_pr__pfet_01v8 ad=0.6 pd=3.4 as=0.6 ps=3.4 w=3 l=0.5
X32 a_24280_31090.t0 a_23100_30050.t3 w_13193_29093.t288 w_13193_29093.t287 sky130_fd_pr__nfet_01v8 ad=0.2 pd=1.4 as=0.4 ps=2.8 w=1 l=0.15
X33 VDPWR.t350 a_24280_31090.t3 a_24310_31010.t0 VDPWR.t245 sky130_fd_pr__pfet_01v8 ad=0.8 pd=4.8 as=0.4 ps=2.4 w=2 l=0.15
X34 w_13193_29093.t217 a_26390_26310.t4 a_26390_28180.t2 w_13193_29093.t216 sky130_fd_pr__nfet_01v8 ad=0.1 pd=0.9 as=0.1 ps=0.9 w=0.5 l=0.15
X35 a_25860_21760.t0 V_CONT.t8 w_13193_29093.t151 w_13193_29093.t140 sky130_fd_pr__nfet_01v8 ad=0.4 pd=2.8 as=0.4 ps=2.8 w=1 l=0.15
X36 a_19940_24490.t1 V_CONT.t9 a_19250_24340.t13 w_13193_29093.t4 sky130_fd_pr__nfet_01v8 ad=0.125 pd=1 as=0.125 ps=1 w=0.5 l=0.15
X37 VDPWR.t128 a_23100_29610.t3 a_23100_29280.t1 VDPWR.t127 sky130_fd_pr__pfet_01v8 ad=0.8 pd=4.8 as=0.8 ps=4.8 w=2 l=0.15
X38 a_22190_29430.t10 a_14558_34050.t10 VDPWR.t345 VDPWR.t344 sky130_fd_pr__pfet_01v8 ad=0.2 pd=1.4 as=0.2 ps=1.4 w=1 l=0.15
X39 w_13193_29093.t280 a_18974_25060.t10 a_19250_24340.t9 w_13193_29093.t13 sky130_fd_pr__nfet_01v8 ad=0.3125 pd=1.75 as=0.3125 ps=1.75 w=1.25 l=0.5
X40 VDPWR.t387 a_19190_29290.t18 a_19190_29050.t8 VDPWR.t386 sky130_fd_pr__pfet_01v8 ad=0.2 pd=1.4 as=0.2 ps=1.4 w=1 l=0.2
X41 w_13193_29093.t142 a_23100_30570.t4 a_23100_30980.t0 w_13193_29093.t141 sky130_fd_pr__nfet_01v8 ad=0.4 pd=2.8 as=0.2 ps=1.4 w=1 l=0.15
X42 VDPWR.t360 a_23130_27670.t3 V_CONT.t3 VDPWR.t359 sky130_fd_pr__pfet_01v8 ad=0.5 pd=2.5 as=0.5 ps=2.5 w=2 l=0.6
X43 a_19190_29290.t11 a_19190_29290.t10 VDPWR.t109 VDPWR.t108 sky130_fd_pr__pfet_01v8 ad=0.2 pd=1.4 as=0.2 ps=1.4 w=1 l=0.2
X44 VDPWR.t105 a_19190_31610.t18 a_19190_31850.t9 VDPWR.t104 sky130_fd_pr__pfet_01v8 ad=0.2 pd=1.4 as=0.2 ps=1.4 w=1 l=0.2
X45 a_14348_27710.t21 VDPWR.t65 sky130_fd_pr__cap_mim_m3_1 l=2 w=2
X46 a_26300_22300.t0 a_26300_23070.t4 w_13193_29093.t301 w_13193_29093.t300 sky130_fd_pr__nfet_01v8 ad=0.2 pd=1.8 as=0.1 ps=0.9 w=0.5 l=0.15
X47 w_13193_29093.t249 a_26390_27520.t3 a_26420_27440.t1 w_13193_29093.t248 sky130_fd_pr__nfet_01v8 ad=0.2 pd=1.8 as=0.1 ps=0.9 w=0.5 l=0.15
X48 w_13193_29093.t20 a_26310_26200.t3 a_26390_29930.t3 w_13193_29093.t19 sky130_fd_pr__nfet_01v8 ad=0.1 pd=0.9 as=0.1 ps=0.9 w=0.5 l=0.15
X49 a_14348_27710.t22 VDPWR.t134 sky130_fd_pr__cap_mim_m3_1 l=2 w=2
X50 a_20480_25210.t9 a_20480_25210.t7 a_20480_25210.t8 VDPWR.t247 sky130_fd_pr__pfet_01v8 ad=0.5 pd=3 as=0 ps=0 w=1 l=0.15
X51 VDPWR.t220 a_14558_34050.t11 a_14140_28370.t10 VDPWR.t219 sky130_fd_pr__pfet_01v8 ad=0.2 pd=1.4 as=0.2 ps=1.4 w=1 l=0.15
X52 a_26310_26200.t2 a_26390_27520.t4 VDPWR.t352 VDPWR.t351 sky130_fd_pr__pfet_01v8 ad=0.1 pd=0.9 as=0.2 ps=1.8 w=0.5 l=0.15
X53 a_26390_31270.t3 a_26310_26200.t4 w_13193_29093.t290 w_13193_29093.t289 sky130_fd_pr__nfet_01v8 ad=0.1 pd=0.9 as=0.1 ps=0.9 w=0.5 l=0.15
X54 w_13193_29093.t112 a_19040_22530.t5 a_19940_23090.t4 w_13193_29093.t111 sky130_fd_pr__nfet_01v8 ad=0.125 pd=1 as=0.125 ps=1 w=0.5 l=0.15
X55 w_13193_29093.t53 w_13193_29093.t99 a_13370_29270.t7 sky130_fd_pr__pnp_05v5_W3p40L3p40
**devattr s=462400,2720
X56 a_24280_31990.t0 a_26320_28790.t3 VDPWR.t259 VDPWR.t258 sky130_fd_pr__pfet_01v8 ad=0.2 pd=1.8 as=0.2 ps=1.8 w=0.5 l=0.15
X57 w_13193_29093.t51 a_23100_29610.t4 a_23100_29280.t0 w_13193_29093.t50 sky130_fd_pr__nfet_01v8 ad=0.4 pd=2.8 as=0.4 ps=2.8 w=1 l=0.15
X58 VDPWR.t40 a_19190_31610.t19 a_19190_31850.t8 VDPWR.t39 sky130_fd_pr__pfet_01v8 ad=0.2 pd=1.4 as=0.2 ps=1.4 w=1 l=0.2
X59 a_26640_21160.t1 w_13193_29093.t313 VDPWR.t67 VDPWR.t66 sky130_fd_pr__pfet_01v8 ad=0.4 pd=2.8 as=0.4 ps=2.8 w=1 l=0.15
X60 a_19910_24200.t4 a_19940_23090.t10 VDPWR.t362 VDPWR.t361 sky130_fd_pr__pfet_01v8 ad=0.5 pd=2.5 as=0.5 ps=2.5 w=2 l=0.6
X61 a_22190_29430.t0 a_24280_27770.t2 a_24310_27670.t2 VDPWR.t97 sky130_fd_pr__pfet_01v8 ad=1 pd=5 as=1 ps=5 w=2 l=0.15
X62 a_24280_29730.t1 a_23130_29200.t2 VDPWR.t208 VDPWR.t207 sky130_fd_pr__pfet_01v8 ad=0.8 pd=4.8 as=0.8 ps=4.8 w=2 l=0.15
X63 a_26300_23600.t1 a_26300_24370.t4 w_13193_29093.t251 w_13193_29093.t250 sky130_fd_pr__nfet_01v8 ad=0.2 pd=1.8 as=0.1 ps=0.9 w=0.5 l=0.15
X64 a_14558_34050.t9 a_19190_31850.t11 VDPWR.t204 VDPWR.t203 sky130_fd_pr__pfet_01v8 ad=0.2 pd=1.4 as=0.2 ps=1.4 w=1 l=0.2
X65 w_13193_29093.t247 a_26390_30500.t2 a_26420_30420.t1 w_13193_29093.t246 sky130_fd_pr__nfet_01v8 ad=0.1 pd=0.9 as=0.1 ps=0.9 w=0.5 l=0.15
X66 w_13193_29093.t264 VDPWR.t430 a_14558_34050.t1 w_13193_29093.t263 sky130_fd_pr__nfet_01v8 ad=1 pd=5.8 as=1 ps=5.8 w=2.5 l=5
X67 a_14348_27710.t23 VDPWR.t135 sky130_fd_pr__cap_mim_m3_1 l=2 w=2
X68 VDPWR.t336 VDPWR.t334 a_14348_27710.t12 VDPWR.t335 sky130_fd_pr__pfet_01v8 ad=0.45 pd=2.9 as=0.2 ps=1.4 w=1 l=0.15
X69 a_25860_21760.t1 ua[1].t2 a_26400_21130.t1 w_13193_29093.t140 sky130_fd_pr__nfet_01v8 ad=0.2 pd=1.8 as=0.2 ps=1.8 w=0.5 l=0.15
X70 a_26420_27220.t1 a_26390_27520.t5 VDPWR.t257 VDPWR.t256 sky130_fd_pr__pfet_01v8 ad=0.2 pd=1.8 as=0.1 ps=0.9 w=0.5 l=0.15
X71 VDPWR.t92 a_19940_24490.t4 a_19940_24490.t5 VDPWR.t91 sky130_fd_pr__pfet_01v8 ad=0.25 pd=1.5 as=0.25 ps=1.5 w=1 l=0.15
X72 a_26390_32300.t3 a_26320_28790.t4 w_13193_29093.t8 w_13193_29093.t7 sky130_fd_pr__nfet_01v8 ad=0.1 pd=0.9 as=0.1 ps=0.9 w=0.5 l=0.15
X73 a_26320_28790.t0 a_26310_26200.t5 VDPWR.t83 VDPWR.t82 sky130_fd_pr__pfet_01v8 ad=0.2 pd=1.8 as=0.1 ps=0.9 w=0.5 l=0.15
X74 VDPWR.t119 ua[0].t0 a_23550_31910.t0 VDPWR.t118 sky130_fd_pr__pfet_01v8 ad=0.8 pd=4.8 as=0.4 ps=2.4 w=2 l=0.15
X75 a_14348_27710.t7 a_19190_29050.t13 VDPWR.t399 VDPWR.t398 sky130_fd_pr__pfet_01v8 ad=0.2 pd=1.4 as=0.2 ps=1.4 w=1 l=0.2
X76 VDPWR.t141 a_23100_29280.t2 a_23130_29200.t1 VDPWR.t140 sky130_fd_pr__pfet_01v8 ad=0.8 pd=4.8 as=0.8 ps=4.8 w=2 l=0.15
X77 a_19190_31850.t4 a_14140_28370.t13 a_18180_33430.t5 w_13193_29093.t139 sky130_fd_pr__nfet_01v8 ad=0.1 pd=0.9 as=0.1 ps=0.9 w=0.5 l=0.2
X78 VDPWR.t206 a_19190_29290.t8 a_19190_29290.t9 VDPWR.t205 sky130_fd_pr__pfet_01v8 ad=0.2 pd=1.4 as=0.2 ps=1.4 w=1 l=0.2
X79 a_26300_24900.t0 a_26300_25670.t4 w_13193_29093.t106 w_13193_29093.t105 sky130_fd_pr__nfet_01v8 ad=0.2 pd=1.8 as=0.1 ps=0.9 w=0.5 l=0.15
X80 a_24280_30980.t1 a_24280_30570.t4 a_24310_30490.t0 VDPWR.t86 sky130_fd_pr__pfet_01v8 ad=0.8 pd=4.8 as=0.4 ps=2.4 w=2 l=0.15
X81 a_26640_20560.t2 a_26400_20530.t2 ua[1].t1 VDPWR.t59 sky130_fd_pr__pfet_01v8 ad=0.4 pd=2.8 as=0.4 ps=2.8 w=1 l=0.15
X82 a_14348_27710.t24 VDPWR.t120 sky130_fd_pr__cap_mim_m3_1 l=2 w=2
X83 a_22190_29430.t9 a_14558_34050.t12 VDPWR.t354 VDPWR.t353 sky130_fd_pr__pfet_01v8 ad=0.2 pd=1.4 as=0.2 ps=1.4 w=1 l=0.15
X84 w_13193_29093.t98 w_13193_29093.t96 w_13193_29093.t97 w_13193_29093.t4 sky130_fd_pr__nfet_01v8 ad=0.25 pd=2 as=0 ps=0 w=0.5 l=0.15
X85 a_26740_30530.t1 a_26390_30500.t3 VDPWR.t212 VDPWR.t211 sky130_fd_pr__pfet_01v8 ad=0.1 pd=0.9 as=0.1 ps=0.9 w=0.5 l=0.15
X86 a_18974_25970.t7 a_18974_25970.t6 VDPWR.t161 VDPWR.t160 sky130_fd_pr__pfet_01v8 ad=0.625 pd=3 as=0.625 ps=3 w=2.5 l=0.5
X87 a_23100_30460.t0 a_24280_30060.t3 w_13193_29093.t225 w_13193_29093.t224 sky130_fd_pr__nfet_01v8 ad=0.4 pd=2.8 as=0.4 ps=2.8 w=1 l=0.15
X88 a_14140_28370.t12 VDPWR.t331 VDPWR.t333 VDPWR.t332 sky130_fd_pr__pfet_01v8 ad=0.2 pd=1.4 as=0.4 ps=2.8 w=1 l=0.15
X89 w_13193_29093.t95 w_13193_29093.t93 w_13193_29093.t94 w_13193_29093.t4 sky130_fd_pr__nfet_01v8 ad=0.125 pd=1 as=0 ps=0 w=0.5 l=0.15
X90 VDPWR.t369 a_23100_30050.t4 a_23100_29610.t0 VDPWR.t368 sky130_fd_pr__pfet_01v8 ad=0.805 pd=5 as=0.4 ps=2.4 w=2 l=0.15
X91 w_13193_29093.t163 ua[0].t1 a_23020_31090.t0 w_13193_29093.t162 sky130_fd_pr__nfet_01v8 ad=0.4 pd=2.8 as=0.2 ps=1.4 w=1 l=0.15
X92 a_19190_29050.t14 a_13532_27710.t19 sky130_fd_pr__cap_mim_m3_1 l=2 w=2
X93 VDPWR.t330 VDPWR.t327 VDPWR.t329 VDPWR.t328 sky130_fd_pr__pfet_01v8 ad=0.5 pd=2.5 as=0 ps=0 w=2 l=0.6
X94 a_19190_31610.t14 a_19190_31610.t13 VDPWR.t28 VDPWR.t27 sky130_fd_pr__pfet_01v8 ad=0.2 pd=1.4 as=0.2 ps=1.4 w=1 l=0.2
X95 w_13193_29093.t155 a_23100_29280.t3 a_23130_29200.t0 w_13193_29093.t154 sky130_fd_pr__nfet_01v8 ad=0.4 pd=2.8 as=0.4 ps=2.8 w=1 l=0.15
X96 w_13193_29093.t135 ua[1].t3 a_26300_22410.t0 w_13193_29093.t134 sky130_fd_pr__nfet_01v8 ad=0.1 pd=0.9 as=0.2 ps=1.8 w=0.5 l=0.15
X97 w_13193_29093.t190 a_26390_26310.t5 a_26390_26970.t2 w_13193_29093.t189 sky130_fd_pr__nfet_01v8 ad=0.1 pd=0.9 as=0.2 ps=1.8 w=0.5 l=0.15
X98 VDPWR.t192 a_19190_31850.t12 a_14558_34050.t8 VDPWR.t191 sky130_fd_pr__pfet_01v8 ad=0.2 pd=1.4 as=0.2 ps=1.4 w=1 l=0.2
X99 a_14348_27710.t25 VDPWR.t121 sky130_fd_pr__cap_mim_m3_1 l=2 w=2
X100 V_CONT.t7 a_25350_8708.t1 w_13193_29093.t245 sky130_fd_pr__res_xhigh_po_0p35 l=7.52
X101 a_19190_29050.t15 a_13532_27710.t18 sky130_fd_pr__cap_mim_m3_1 l=2 w=2
X102 w_13193_29093.t294 a_24280_27770.t3 a_24310_27670.t1 w_13193_29093.t293 sky130_fd_pr__nfet_01v8 ad=0.5 pd=3 as=0.5 ps=3 w=1 l=0.15
X103 a_18180_28430.t7 a_14990_33500.t6 a_19190_29050.t3 w_13193_29093.t215 sky130_fd_pr__nfet_01v8 ad=0.1 pd=0.9 as=0.1 ps=0.9 w=0.5 l=0.2
X104 VDPWR.t326 VDPWR.t323 VDPWR.t325 VDPWR.t324 sky130_fd_pr__pfet_01v8 ad=0.625 pd=3 as=0 ps=0 w=2.5 l=0.5
X105 a_23100_30050.t0 a_24280_30570.t5 w_13193_29093.t46 w_13193_29093.t45 sky130_fd_pr__nfet_01v8 ad=0.2 pd=1.4 as=0.4 ps=2.8 w=1 l=0.15
X106 VDPWR.t322 VDPWR.t320 a_14140_28370.t11 VDPWR.t321 sky130_fd_pr__pfet_01v8 ad=0.4 pd=2.8 as=0.2 ps=1.4 w=1 l=0.15
X107 a_19190_31850.t13 a_13742_34050.t20 sky130_fd_pr__cap_mim_m3_1 l=2 w=2
X108 a_23100_29610.t2 a_23020_29890.t3 VDPWR.t397 VDPWR.t396 sky130_fd_pr__pfet_01v8 ad=0.4 pd=2.4 as=0.8 ps=4.8 w=2 l=0.15
X109 w_13193_29093.t239 a_24280_31090.t4 a_24280_30570.t2 w_13193_29093.t238 sky130_fd_pr__nfet_01v8 ad=0.4 pd=2.8 as=0.2 ps=1.4 w=1 l=0.15
X110 a_19190_29050.t16 a_13532_27710.t17 sky130_fd_pr__cap_mim_m3_1 l=2 w=2
X111 VDPWR.t50 a_19190_29050.t17 a_14348_27710.t6 VDPWR.t49 sky130_fd_pr__pfet_01v8 ad=0.2 pd=1.4 as=0.2 ps=1.4 w=1 l=0.2
X112 w_13193_29093.t175 a_23100_30050.t5 a_23130_29970.t0 w_13193_29093.t174 sky130_fd_pr__nfet_01v8 ad=0.4 pd=2.8 as=0.2 ps=1.4 w=1 l=0.15
X113 a_18180_33430.t4 a_14140_28370.t14 a_19190_31850.t3 w_13193_29093.t133 sky130_fd_pr__nfet_01v8 ad=0.1 pd=0.9 as=0.1 ps=0.9 w=0.5 l=0.2
X114 w_13193_29093.t121 a_26300_22300.t2 a_26300_23710.t0 w_13193_29093.t120 sky130_fd_pr__nfet_01v8 ad=0.1 pd=0.9 as=0.2 ps=1.8 w=0.5 l=0.15
X115 a_19190_29050.t0 a_19190_29290.t19 VDPWR.t152 VDPWR.t151 sky130_fd_pr__pfet_01v8 ad=0.2 pd=1.4 as=0.2 ps=1.4 w=1 l=0.2
X116 a_14348_27710.t26 VDPWR.t188 sky130_fd_pr__cap_mim_m3_1 l=2 w=2
X117 w_13193_29093.t42 a_26390_26310.t6 a_26390_28180.t1 w_13193_29093.t41 sky130_fd_pr__nfet_01v8 ad=0.1 pd=0.9 as=0.2 ps=1.8 w=0.5 l=0.15
X118 a_18180_28430.t8 a_14990_33500.t7 a_19190_29050.t6 w_13193_29093.t218 sky130_fd_pr__nfet_01v8 ad=0.1 pd=0.9 as=0.2 ps=1.8 w=0.5 l=0.2
X119 a_13532_33810.t1 a_14610_33690.t1 w_13193_29093.t253 sky130_fd_pr__res_xhigh_po_0p35 l=3.35
X120 a_19190_29050.t18 a_13532_27710.t16 sky130_fd_pr__cap_mim_m3_1 l=2 w=2
X121 a_19910_25340.t2 a_19910_25340.t1 w_13193_29093.t38 w_13193_29093.t4 sky130_fd_pr__nfet_01v8 ad=0.125 pd=1 as=0.125 ps=1 w=0.5 l=0.15
X122 a_19190_31850.t14 a_13742_34050.t19 sky130_fd_pr__cap_mim_m3_1 l=2 w=2
X123 a_19040_22530.t3 a_19910_24200.t7 a_20480_25210.t11 VDPWR.t177 sky130_fd_pr__pfet_01v8 ad=0.25 pd=1.5 as=0.25 ps=1.5 w=1 l=0.15
X124 V_CONT.t2 a_23130_27670.t4 VDPWR.t7 VDPWR.t6 sky130_fd_pr__pfet_01v8 ad=0.5 pd=2.5 as=0.5 ps=2.5 w=2 l=0.6
X125 a_26300_23070.t2 a_26300_22410.t3 w_13193_29093.t167 w_13193_29093.t166 sky130_fd_pr__nfet_01v8 ad=0.1 pd=0.9 as=0.1 ps=0.9 w=0.5 l=0.15
X126 a_23130_29970.t1 a_23020_29890.t4 a_23100_29610.t1 w_13193_29093.t128 sky130_fd_pr__nfet_01v8 ad=0.2 pd=1.4 as=0.4 ps=2.8 w=1 l=0.15
X127 a_26640_21760.t1 w_13193_29093.t314 VDPWR.t69 VDPWR.t68 sky130_fd_pr__pfet_01v8 ad=0.4 pd=2.8 as=0.4 ps=2.8 w=1 l=0.15
X128 a_19190_31850.t15 a_13742_34050.t18 sky130_fd_pr__cap_mim_m3_1 l=2 w=2
X129 a_18974_25060.t7 a_18974_25060.t6 w_13193_29093.t28 w_13193_29093.t13 sky130_fd_pr__nfet_01v8 ad=0.3125 pd=1.75 as=0.3125 ps=1.75 w=1.25 l=0.5
X130 VDPWR.t230 a_19190_31610.t11 a_19190_31610.t12 VDPWR.t229 sky130_fd_pr__pfet_01v8 ad=0.2 pd=1.4 as=0.2 ps=1.4 w=1 l=0.2
X131 w_13193_29093.t123 a_26300_23600.t2 a_26300_25010.t1 w_13193_29093.t122 sky130_fd_pr__nfet_01v8 ad=0.1 pd=0.9 as=0.2 ps=1.8 w=0.5 l=0.15
X132 a_24280_30060.t0 a_24280_29730.t2 VDPWR.t393 VDPWR.t392 sky130_fd_pr__pfet_01v8 ad=0.8 pd=4.8 as=0.8 ps=4.8 w=2 l=0.15
X133 VDPWR.t416 a_24280_31990.t2 a_24310_31910.t1 VDPWR.t118 sky130_fd_pr__pfet_01v8 ad=0.8 pd=4.8 as=0.4 ps=2.4 w=2 l=0.15
X134 a_19190_29050.t19 a_13532_27710.t15 sky130_fd_pr__cap_mim_m3_1 l=2 w=2
X135 a_19190_31850.t7 a_19190_31610.t20 VDPWR.t42 VDPWR.t41 sky130_fd_pr__pfet_01v8 ad=0.2 pd=1.4 as=0.2 ps=1.4 w=1 l=0.2
X136 V_CONT.t6 a_24310_27670.t3 w_13193_29093.t159 w_13193_29093.t158 sky130_fd_pr__nfet_01v8 ad=0.5 pd=2.5 as=0.5 ps=2.5 w=2 l=0.6
X137 a_22190_29430.t15 a_24310_27960.t3 a_24310_27670.t0 w_13193_29093.t199 sky130_fd_pr__nfet_01v8 ad=0.5 pd=3 as=0.5 ps=3 w=1 l=0.15
X138 a_24280_29730.t0 a_23130_29200.t3 w_13193_29093.t232 w_13193_29093.t231 sky130_fd_pr__nfet_01v8 ad=0.4 pd=2.8 as=0.4 ps=2.8 w=1 l=0.15
X139 VDPWR.t395 a_26420_27220.t3 a_26390_28180.t3 VDPWR.t394 sky130_fd_pr__pfet_01v8 ad=0.1 pd=0.9 as=0.2 ps=1.8 w=0.5 l=0.15
X140 a_26390_29240.t0 a_26320_28790.t5 w_13193_29093.t177 w_13193_29093.t176 sky130_fd_pr__nfet_01v8 ad=0.2 pd=1.8 as=0.2 ps=1.8 w=0.5 l=0.15
X141 a_19250_24340.t11 a_19910_24200.t8 a_19940_24230.t4 w_13193_29093.t4 sky130_fd_pr__nfet_01v8 ad=0.125 pd=1 as=0.125 ps=1 w=0.5 l=0.15
X142 VDPWR.t319 VDPWR.t316 VDPWR.t318 VDPWR.t317 sky130_fd_pr__pfet_01v8 ad=0.25 pd=1.5 as=0 ps=0 w=1 l=0.15
X143 a_22190_29430.t8 a_14558_34050.t13 VDPWR.t265 VDPWR.t264 sky130_fd_pr__pfet_01v8 ad=0.2 pd=1.4 as=0.2 ps=1.4 w=1 l=0.15
X144 a_19190_29050.t20 a_13532_27710.t14 sky130_fd_pr__cap_mim_m3_1 l=2 w=2
X145 a_14140_28370.t9 a_14558_34050.t14 VDPWR.t143 VDPWR.t142 sky130_fd_pr__pfet_01v8 ad=0.2 pd=1.4 as=0.2 ps=1.4 w=1 l=0.15
X146 a_19190_31850.t16 a_13742_34050.t17 sky130_fd_pr__cap_mim_m3_1 l=2 w=2
X147 w_13193_29093.t92 w_13193_29093.t90 w_13193_29093.t91 w_13193_29093.t13 sky130_fd_pr__nfet_01v8 ad=0.3125 pd=1.75 as=0 ps=0 w=1.25 l=0.5
X148 a_23020_29890.t2 a_23020_31090.t3 a_23550_31390.t1 VDPWR.t124 sky130_fd_pr__pfet_01v8 ad=0.8 pd=4.8 as=0.4 ps=2.4 w=2 l=0.15
X149 a_13370_29270.t8 a_14990_33500.t5 w_13193_29093.t278 sky130_fd_pr__res_xhigh_po_0p35 l=2.3
X150 a_19190_29290.t7 a_19190_29290.t6 VDPWR.t3 VDPWR.t2 sky130_fd_pr__pfet_01v8 ad=0.2 pd=1.4 as=0.2 ps=1.4 w=1 l=0.2
X151 a_18180_28430.t9 a_14990_33500.t8 a_19190_29050.t7 w_13193_29093.t219 sky130_fd_pr__nfet_01v8 ad=0.1 pd=0.9 as=0.1 ps=0.9 w=0.5 l=0.2
X152 a_19190_31850.t6 a_19190_31610.t21 VDPWR.t356 VDPWR.t355 sky130_fd_pr__pfet_01v8 ad=0.2 pd=1.4 as=0.2 ps=1.4 w=1 l=0.2
X153 a_19190_29050.t21 a_13532_27710.t13 sky130_fd_pr__cap_mim_m3_1 l=2 w=2
X154 a_26420_27330.t0 a_26390_26310.t7 a_26420_27220.t0 w_13193_29093.t230 sky130_fd_pr__nfet_01v8 ad=0.1 pd=0.9 as=0.2 ps=1.8 w=0.5 l=0.15
X155 VDPWR.t315 VDPWR.t313 a_14610_33930.t6 VDPWR.t314 sky130_fd_pr__pfet_01v8 ad=1.2 pd=6.8 as=0.6 ps=3.4 w=3 l=0.5
X156 w_13193_29093.t44 a_26310_26200.t6 a_26390_29930.t2 w_13193_29093.t43 sky130_fd_pr__nfet_01v8 ad=0.1 pd=0.9 as=0.2 ps=1.8 w=0.5 l=0.15
X157 w_13193_29093.t18 a_22190_29430.t18 a_19910_24200.t1 w_13193_29093.t17 sky130_fd_pr__nfet_01v8 ad=0.5 pd=2.5 as=0.5 ps=2.5 w=2 l=0.6
X158 a_19190_29290.t15 a_14730_30630.t9 a_18180_28430.t3 w_13193_29093.t23 sky130_fd_pr__nfet_01v8 ad=0.1 pd=0.9 as=0.1 ps=0.9 w=0.5 l=0.2
X159 a_13532_33810.t0 a_14610_33930.t0 w_13193_29093.t27 sky130_fd_pr__res_xhigh_po_0p35 l=3.35
X160 a_14610_33930.t4 a_14348_27710.t27 VDPWR.t190 VDPWR.t189 sky130_fd_pr__pfet_01v8 ad=0.6 pd=3.4 as=0.6 ps=3.4 w=3 l=0.5
X161 a_18180_33430.t10 a_14610_33930.t7 a_19190_31610.t16 w_13193_29093.t295 sky130_fd_pr__nfet_01v8 ad=0.1 pd=0.9 as=0.2 ps=1.8 w=0.5 l=0.2
X162 a_20480_25210.t13 V_CONT.t10 a_19910_25340.t5 VDPWR.t250 sky130_fd_pr__pfet_01v8 ad=0.25 pd=1.5 as=0.25 ps=1.5 w=1 l=0.15
X163 VDPWR.t232 a_14348_27710.t28 a_17540_31010.t4 VDPWR.t231 sky130_fd_pr__pfet_01v8 ad=0.6 pd=3.4 as=0.6 ps=3.4 w=3 l=0.5
X164 a_26420_29270.t0 a_26390_29240.t3 w_13193_29093.t198 w_13193_29093.t197 sky130_fd_pr__nfet_01v8 ad=0.1 pd=0.9 as=0.2 ps=1.8 w=0.5 l=0.15
X165 VDPWR.t242 a_14558_34050.t15 a_22190_29430.t7 VDPWR.t241 sky130_fd_pr__pfet_01v8 ad=0.2 pd=1.4 as=0.2 ps=1.4 w=1 l=0.15
X166 w_13193_29093.t292 a_24280_30570.t6 a_24280_30980.t0 w_13193_29093.t291 sky130_fd_pr__nfet_01v8 ad=0.4 pd=2.8 as=0.2 ps=1.4 w=1 l=0.15
X167 VDPWR.t267 a_14558_34050.t16 a_14140_28370.t8 VDPWR.t266 sky130_fd_pr__pfet_01v8 ad=0.2 pd=1.4 as=0.2 ps=1.4 w=1 l=0.15
X168 a_14348_27710.t29 VDPWR.t233 sky130_fd_pr__cap_mim_m3_1 l=2 w=2
X169 a_19940_23090.t3 a_19040_22530.t6 w_13193_29093.t184 w_13193_29093.t183 sky130_fd_pr__nfet_01v8 ad=0.125 pd=1 as=0.125 ps=1 w=0.5 l=0.15
X170 VDPWR.t163 a_26320_28790.t6 a_26390_29240.t2 VDPWR.t162 sky130_fd_pr__pfet_01v8 ad=0.1 pd=0.9 as=0.2 ps=1.8 w=0.5 l=0.15
X171 a_26330_22330.t1 a_26300_22300.t3 w_13193_29093.t153 w_13193_29093.t152 sky130_fd_pr__nfet_01v8 ad=0.1 pd=0.9 as=0.1 ps=0.9 w=0.5 l=0.15
X172 w_13193_29093.t234 a_23020_31090.t4 a_23020_29890.t1 w_13193_29093.t233 sky130_fd_pr__nfet_01v8 ad=0.4 pd=2.8 as=0.2 ps=1.4 w=1 l=0.15
X173 VDPWR.t238 a_19940_23090.t11 a_19910_24200.t3 VDPWR.t237 sky130_fd_pr__pfet_01v8 ad=0.5 pd=2.5 as=0.5 ps=2.5 w=2 l=0.6
X174 a_14558_34050.t7 a_19190_31850.t17 VDPWR.t44 VDPWR.t43 sky130_fd_pr__pfet_01v8 ad=0.2 pd=1.4 as=0.2 ps=1.4 w=1 l=0.2
X175 a_19190_29050.t22 a_13532_27710.t12 sky130_fd_pr__cap_mim_m3_1 l=2 w=2
X176 a_26390_27410.t1 a_26390_26970.t4 w_13193_29093.t309 w_13193_29093.t308 sky130_fd_pr__nfet_01v8 ad=0.2 pd=1.8 as=0.1 ps=0.9 w=0.5 l=0.15
X177 a_26300_24370.t0 a_26300_23710.t3 w_13193_29093.t30 w_13193_29093.t29 sky130_fd_pr__nfet_01v8 ad=0.1 pd=0.9 as=0.1 ps=0.9 w=0.5 l=0.15
X178 a_18180_33430.t2 a_14140_28370.t15 a_19190_31850.t2 w_13193_29093.t107 sky130_fd_pr__nfet_01v8 ad=0.1 pd=0.9 as=0.1 ps=0.9 w=0.5 l=0.2
X179 a_14730_30630.t3 a_17540_31010.t6 a_14348_27710.t2 VDPWR.t236 sky130_fd_pr__pfet_01v8 ad=0.2 pd=1.4 as=0.2 ps=1.4 w=1 l=0.15
X180 w_13193_29093.t315 a_25350_8708.t0 sky130_fd_pr__cap_mim_m3_1 l=69.8 w=60
X181 a_26640_21160.t2 a_26400_21130.t2 a_26400_20530.t1 VDPWR.t66 sky130_fd_pr__pfet_01v8 ad=0.4 pd=2.8 as=0.4 ps=2.8 w=1 l=0.15
X182 a_19250_24340.t6 a_19250_24340.t4 a_19250_24340.t5 w_13193_29093.t4 sky130_fd_pr__nfet_01v8 ad=0.25 pd=2 as=0 ps=0 w=0.5 l=0.15
X183 a_19190_31610.t0 a_14610_33930.t8 a_18180_33430.t3 w_13193_29093.t130 sky130_fd_pr__nfet_01v8 ad=0.1 pd=0.9 as=0.1 ps=0.9 w=0.5 l=0.2
X184 a_19940_24490.t3 a_19940_24490.t2 VDPWR.t20 VDPWR.t19 sky130_fd_pr__pfet_01v8 ad=0.25 pd=1.5 as=0.25 ps=1.5 w=1 l=0.15
X185 a_14348_27710.t30 VDPWR.t376 sky130_fd_pr__cap_mim_m3_1 l=2 w=2
X186 VDPWR.t424 a_26390_29240.t4 a_26420_29380.t0 VDPWR.t423 sky130_fd_pr__pfet_01v8 ad=0.1 pd=0.9 as=0.2 ps=1.8 w=0.5 l=0.15
X187 a_19190_31850.t18 a_13742_34050.t16 sky130_fd_pr__cap_mim_m3_1 l=2 w=2
X188 VDPWR.t46 a_18974_25970.t10 a_20480_25210.t2 VDPWR.t45 sky130_fd_pr__pfet_01v8 ad=0.625 pd=3 as=0.625 ps=3 w=2.5 l=0.5
X189 a_26330_23630.t1 a_26300_23600.t3 w_13193_29093.t161 w_13193_29093.t160 sky130_fd_pr__nfet_01v8 ad=0.1 pd=0.9 as=0.1 ps=0.9 w=0.5 l=0.15
X190 w_13193_29093.t53 w_13193_29093.t75 a_13370_29270.t6 sky130_fd_pr__pnp_05v5_W3p40L3p40
**devattr s=462400,2720
X191 VDPWR.t62 a_26300_22300.t4 a_26330_22440.t1 VDPWR.t61 sky130_fd_pr__pfet_01v8 ad=0.1 pd=0.9 as=0.2 ps=1.8 w=0.5 l=0.15
X192 a_19190_29290.t12 a_14730_30630.t10 a_18180_28430.t2 w_13193_29093.t210 sky130_fd_pr__nfet_01v8 ad=0.1 pd=0.9 as=0.1 ps=0.9 w=0.5 l=0.2
X193 a_26300_25670.t3 a_26300_25010.t4 w_13193_29093.t275 w_13193_29093.t274 sky130_fd_pr__nfet_01v8 ad=0.1 pd=0.9 as=0.1 ps=0.9 w=0.5 l=0.15
X194 VDPWR.t358 a_19190_31610.t22 a_19190_31850.t5 VDPWR.t357 sky130_fd_pr__pfet_01v8 ad=0.2 pd=1.4 as=0.2 ps=1.4 w=1 l=0.2
X195 VDPWR.t375 ua[1].t4 a_26300_22410.t2 VDPWR.t374 sky130_fd_pr__pfet_01v8 ad=0.1 pd=0.9 as=0.2 ps=1.8 w=0.5 l=0.15
X196 a_18180_28430.t1 a_14730_30630.t11 a_19190_29290.t14 w_13193_29093.t211 sky130_fd_pr__nfet_01v8 ad=0.1 pd=0.9 as=0.1 ps=0.9 w=0.5 l=0.2
X197 w_13193_29093.t270 a_19040_22530.t7 a_19940_23090.t2 w_13193_29093.t269 sky130_fd_pr__nfet_01v8 ad=0.125 pd=1 as=0.125 ps=1 w=0.5 l=0.15
X198 a_22190_29430.t17 VDPWR.t310 VDPWR.t312 VDPWR.t311 sky130_fd_pr__pfet_01v8 ad=0.2 pd=1.4 as=0.4 ps=2.8 w=1 l=0.15
X199 w_13193_29093.t244 a_14610_33690.t0 w_13193_29093.t243 sky130_fd_pr__res_xhigh_po_0p35 l=3.35
X200 VDPWR.t198 a_19940_24230.t5 a_19940_23090.t7 VDPWR.t197 sky130_fd_pr__pfet_01v8 ad=0.25 pd=1.5 as=0.25 ps=1.5 w=1 l=0.15
X201 w_13193_29093.t89 w_13193_29093.t86 w_13193_29093.t88 w_13193_29093.t87 sky130_fd_pr__nfet_01v8 ad=1 pd=5 as=0 ps=0 w=2 l=0.6
X202 a_18974_25970.t5 a_18974_25970.t4 VDPWR.t150 VDPWR.t149 sky130_fd_pr__pfet_01v8 ad=0.625 pd=3 as=0.625 ps=3 w=2.5 l=0.5
X203 w_13193_29093.t226 a_18974_25060.t11 a_19250_24340.t8 w_13193_29093.t13 sky130_fd_pr__nfet_01v8 ad=0.3125 pd=1.75 as=0.3125 ps=1.75 w=1.25 l=0.5
X204 VDPWR.t155 a_23100_27770.t3 a_23130_27960.t2 VDPWR.t32 sky130_fd_pr__pfet_01v8 ad=1 pd=5 as=1 ps=5 w=2 l=0.15
X205 a_26330_24930.t0 a_26300_24900.t2 w_13193_29093.t165 w_13193_29093.t164 sky130_fd_pr__nfet_01v8 ad=0.1 pd=0.9 as=0.1 ps=0.9 w=0.5 l=0.15
X206 VDPWR.t96 a_26300_23600.t4 a_26330_23740.t1 VDPWR.t95 sky130_fd_pr__pfet_01v8 ad=0.1 pd=0.9 as=0.2 ps=1.8 w=0.5 l=0.15
X207 w_13193_29093.t53 w_13193_29093.t76 a_13370_29270.t5 sky130_fd_pr__pnp_05v5_W3p40L3p40
**devattr s=462400,2720
X208 VDPWR.t364 a_19190_31850.t19 a_14558_34050.t6 VDPWR.t363 sky130_fd_pr__pfet_01v8 ad=0.2 pd=1.4 as=0.2 ps=1.4 w=1 l=0.2
X209 a_26300_22300.t1 a_26300_22410.t4 VDPWR.t74 VDPWR.t73 sky130_fd_pr__pfet_01v8 ad=0.2 pd=1.8 as=0.2 ps=1.8 w=0.5 l=0.15
X210 a_19190_31610.t1 a_14610_33930.t9 a_18180_33430.t6 w_13193_29093.t170 sky130_fd_pr__nfet_01v8 ad=0.1 pd=0.9 as=0.1 ps=0.9 w=0.5 l=0.2
X211 VDPWR.t71 a_26300_22300.t5 a_26300_23710.t2 VDPWR.t70 sky130_fd_pr__pfet_01v8 ad=0.1 pd=0.9 as=0.2 ps=1.8 w=0.5 l=0.15
X212 a_23100_30050.t2 a_24280_31090.t5 a_24310_31390.t1 VDPWR.t124 sky130_fd_pr__pfet_01v8 ad=0.8 pd=4.8 as=0.4 ps=2.4 w=2 l=0.15
X213 a_24280_30060.t1 a_24280_29730.t3 w_13193_29093.t303 w_13193_29093.t302 sky130_fd_pr__nfet_01v8 ad=0.4 pd=2.8 as=0.4 ps=2.8 w=1 l=0.15
X214 w_13193_29093.t157 a_24280_31990.t3 a_24280_31090.t2 w_13193_29093.t156 sky130_fd_pr__nfet_01v8 ad=0.4 pd=2.8 as=0.2 ps=1.4 w=1 l=0.15
X215 a_18180_33430.t9 a_14610_33930.t10 a_19190_31610.t15 w_13193_29093.t286 sky130_fd_pr__nfet_01v8 ad=0.1 pd=0.9 as=0.1 ps=0.9 w=0.5 l=0.2
X216 a_19940_23090.t12 a_18460_22530.t0 sky130_fd_pr__cap_mim_m3_1 l=10 w=10
X217 a_26390_27520.t1 a_26390_28180.t4 w_13193_29093.t173 w_13193_29093.t172 sky130_fd_pr__nfet_01v8 ad=0.2 pd=1.8 as=0.1 ps=0.9 w=0.5 l=0.15
X218 a_19940_23090.t13 a_21386_22530.t1 sky130_fd_pr__cap_mim_m3_1 l=10 w=10
X219 VDPWR.t244 a_14558_34050.t17 a_22190_29430.t6 VDPWR.t243 sky130_fd_pr__pfet_01v8 ad=0.2 pd=1.4 as=0.2 ps=1.4 w=1 l=0.15
X220 a_18974_25060.t5 a_18974_25060.t4 w_13193_29093.t182 w_13193_29093.t13 sky130_fd_pr__nfet_01v8 ad=0.3125 pd=1.75 as=0.3125 ps=1.75 w=1.25 l=0.5
X221 w_13193_29093.t194 a_23100_27770.t4 a_23130_27960.t1 w_13193_29093.t193 sky130_fd_pr__nfet_01v8 ad=0.5 pd=3 as=0.5 ps=3 w=1 l=0.15
X222 VDPWR.t309 VDPWR.t307 a_14558_34050.t3 VDPWR.t308 sky130_fd_pr__pfet_01v8 ad=0.4 pd=2.8 as=0.2 ps=1.4 w=1 l=0.2
X223 a_26300_23600.t0 a_26300_23710.t4 VDPWR.t111 VDPWR.t110 sky130_fd_pr__pfet_01v8 ad=0.2 pd=1.8 as=0.2 ps=1.8 w=0.5 l=0.15
X224 a_18180_28430.t0 a_14730_30630.t12 a_19190_29290.t16 w_13193_29093.t310 sky130_fd_pr__nfet_01v8 ad=0.1 pd=0.9 as=0.1 ps=0.9 w=0.5 l=0.2
X225 a_19190_31610.t10 a_19190_31610.t9 VDPWR.t157 VDPWR.t156 sky130_fd_pr__pfet_01v8 ad=0.2 pd=1.4 as=0.2 ps=1.4 w=1 l=0.2
X226 a_26390_30500.t0 a_26390_29930.t4 w_13193_29093.t119 w_13193_29093.t118 sky130_fd_pr__nfet_01v8 ad=0.2 pd=1.8 as=0.1 ps=0.9 w=0.5 l=0.15
X227 VDPWR.t90 a_26300_23600.t5 a_26300_25010.t0 VDPWR.t89 sky130_fd_pr__pfet_01v8 ad=0.1 pd=0.9 as=0.2 ps=1.8 w=0.5 l=0.15
X228 a_19190_29050.t2 a_14990_33500.t9 a_18180_28430.t6 w_13193_29093.t202 sky130_fd_pr__nfet_01v8 ad=0.1 pd=0.9 as=0.1 ps=0.9 w=0.5 l=0.2
X229 a_26420_31640.t0 a_24280_31990.t4 w_13193_29093.t283 w_13193_29093.t282 sky130_fd_pr__nfet_01v8 ad=0.1 pd=0.9 as=0.2 ps=1.8 w=0.5 l=0.15
X230 a_26390_29240.t1 a_26320_28790.t7 VDPWR.t11 VDPWR.t10 sky130_fd_pr__pfet_01v8 ad=0.2 pd=1.8 as=0.1 ps=0.9 w=0.5 l=0.15
X231 a_19190_29050.t23 a_13532_27710.t11 sky130_fd_pr__cap_mim_m3_1 l=2 w=2
X232 VDPWR.t306 VDPWR.t303 VDPWR.t305 VDPWR.t304 sky130_fd_pr__pfet_01v8 ad=0.5 pd=3 as=0 ps=0 w=1 l=0.15
X233 a_20480_25210.t6 a_20480_25210.t4 a_20480_25210.t5 VDPWR.t249 sky130_fd_pr__pfet_01v8 ad=0.25 pd=1.5 as=0 ps=0 w=1 l=0.15
X234 a_13742_34050.t0 a_14558_34050.t0 w_13193_29093.t214 sky130_fd_pr__res_high_po_0p35 l=2.05
X235 a_14140_28370.t7 a_14558_34050.t18 VDPWR.t165 VDPWR.t164 sky130_fd_pr__pfet_01v8 ad=0.2 pd=1.4 as=0.2 ps=1.4 w=1 l=0.15
X236 VDPWR.t126 a_26390_27520.t6 a_26310_26200.t1 VDPWR.t125 sky130_fd_pr__pfet_01v8 ad=0.2 pd=1.8 as=0.1 ps=0.9 w=0.5 l=0.15
X237 w_13193_29093.t188 a_26310_26200.t7 a_26390_31270.t2 w_13193_29093.t187 sky130_fd_pr__nfet_01v8 ad=0.1 pd=0.9 as=0.1 ps=0.9 w=0.5 l=0.15
X238 a_14348_27710.t31 VDPWR.t377 sky130_fd_pr__cap_mim_m3_1 l=2 w=2
X239 VDPWR.t144 a_23100_28450.t2 a_23100_27770.t0 VDPWR.t58 sky130_fd_pr__pfet_01v8 ad=1 pd=5 as=1 ps=5 w=2 l=0.15
X240 a_23550_31010.t1 a_23100_30980.t3 a_23100_30570.t2 VDPWR.t216 sky130_fd_pr__pfet_01v8 ad=0.4 pd=2.4 as=0.8 ps=4.8 w=2 l=0.15
X241 VDPWR.t24 a_23130_27670.t5 V_CONT.t1 VDPWR.t23 sky130_fd_pr__pfet_01v8 ad=0.5 pd=2.5 as=0.5 ps=2.5 w=2 l=0.6
X242 a_19940_24230.t2 a_21386_22530.t0 w_13193_29093.t213 sky130_fd_pr__res_xhigh_po_0p35 l=1.14
X243 a_24310_27670.t4 a_24310_27960.t2 sky130_fd_pr__cap_mim_m3_1 l=2.7 w=3.8