* PEX produced on Sat Aug 30 02:14:21 AM CEST 2025 using /foss/tools/osic-multitool/iic-pex.sh with m=3 and s=1
* NGSPICE file created from project_2.ext - technology: sky130A

.subckt project_2 clk ena rst_n ua[0] ua[1] ua[2] ua[3] ua[4] ua[5] ua[6] ua[7] ui_in[0]
+ ui_in[1] ui_in[2] ui_in[3] ui_in[4] ui_in[5] ui_in[6] ui_in[7] uio_in[0] uio_in[1]
+ uio_in[2] uio_in[3] uio_in[4] uio_in[5] uio_in[6] uio_in[7] uio_oe[0] uio_oe[1]
+ uio_oe[2] uio_oe[3] uio_oe[4] uio_oe[5] uio_oe[6] uio_oe[7] uio_out[0] uio_out[1]
+ uio_out[2] uio_out[3] uio_out[4] uio_out[5] uio_out[6] uio_out[7] uo_out[0] uo_out[1]
+ uo_out[2] uo_out[3] uo_out[4] uo_out[5] uo_out[6] uo_out[7] VDPWR VGND
X0 w_23460_23020.t25 w_23460_23020.t22 w_23460_23020.t24 w_23460_23020.t23 sky130_fd_pr__pfet_01v8 ad=0.5 pd=2.5 as=0 ps=0 w=2 l=0.6
X1 VGND.t209 a_19190_29050.t11 a_14348_27710.t10 VGND.t208 sky130_fd_pr__pfet_01v8 ad=0.2 pd=1.4 as=0.2 ps=1.4 w=1 l=0.2
X2 a_19190_31850.t9 a_19190_31610.t17 VGND.t125 VGND.t124 sky130_fd_pr__pfet_01v8 ad=0.2 pd=1.4 as=0.2 ps=1.4 w=1 l=0.2
X3 VDPWR.t217 a_26300_25010.t3 a_26300_25670.t1 VDPWR.t216 sky130_fd_pr__nfet_01v8 ad=0.1 pd=0.9 as=0.2 ps=1.8 w=0.5 l=0.15
X4 a_18180_33430.t8 VGND.t334 VDPWR.t210 VDPWR.t209 sky130_fd_pr__nfet_01v8 ad=1 pd=5.8 as=1 ps=5.8 w=2.5 l=5
X5 a_14348_27710.t14 VGND.t259 sky130_fd_pr__cap_mim_m3_1 l=2 w=2
X6 a_26640_21760.t1 a_25860_20180.t3 VGND.t120 VGND.t119 sky130_fd_pr__pfet_01v8 ad=0.8 pd=4.8 as=0.8 ps=4.8 w=2 l=1.5
X7 a_23100_30460.t0 a_24280_30060.t2 VGND.t123 VGND.t122 sky130_fd_pr__pfet_01v8 ad=0.8 pd=4.8 as=0.8 ps=4.8 w=2 l=0.15
X8 VDPWR.t235 VDPWR.t288 a_14730_30630.t7 sky130_fd_pr__pnp_05v5_W3p40L3p40
**devattr s=462400,2720
X9 VDPWR.t299 a_19910_25340.t4 a_19910_25340.t5 VDPWR.t7 sky130_fd_pr__nfet_01v8 ad=0.125 pd=1 as=0.125 ps=1 w=0.5 l=0.15
X10 a_20480_25210.t10 a_19910_24200.t6 a_19040_22530.t4 w_20440_23530.t29 sky130_fd_pr__pfet_01v8 ad=0.25 pd=1.5 as=0.25 ps=1.5 w=1 l=0.15
X11 w_20440_23530.t33 a_17884_25798.t9 a_20480_25210.t11 w_20440_23530.t32 sky130_fd_pr__pfet_01v8 ad=0.625 pd=3 as=0.625 ps=3 w=2.5 l=0.5
X12 VGND.t193 a_26320_28790.t2 a_26420_30200.t1 VGND.t192 sky130_fd_pr__pfet_01v8 ad=0.1 pd=0.9 as=0.2 ps=1.8 w=0.5 l=0.15
X13 a_19190_29050.t12 a_13532_27710.t20 sky130_fd_pr__cap_mim_m3_1 l=2 w=2
X14 a_19940_23090.t1 a_23100_27770.t2 a_23130_27670.t1 VDPWR.t184 sky130_fd_pr__nfet_01v8 ad=0.5 pd=3 as=0.5 ps=3 w=1 l=0.15
X15 a_23100_30980.t1 a_23100_30570.t3 a_23550_30490.t1 VGND.t190 sky130_fd_pr__pfet_01v8 ad=0.8 pd=4.8 as=0.4 ps=2.4 w=2 l=0.15
X16 a_19250_24340.t13 a_17884_25190.t9 VDPWR.t157 VDPWR.t1 sky130_fd_pr__nfet_01v8 ad=0.3125 pd=1.75 as=0.3125 ps=1.75 w=1.25 l=0.5
X17 VGND.t51 a_19190_29290.t17 a_19190_29050.t3 VGND.t50 sky130_fd_pr__pfet_01v8 ad=0.2 pd=1.4 as=0.2 ps=1.4 w=1 l=0.2
X18 a_17540_31010.t5 a_14348_27710.t15 VGND.t261 VGND.t260 sky130_fd_pr__pfet_01v8 ad=0.6 pd=3.4 as=0.6 ps=3.4 w=3 l=0.5
X19 VGND.t297 VGND.t295 a_14348_27710.t2 VGND.t296 sky130_fd_pr__pfet_01v8 ad=0.4 pd=2.8 as=0.2 ps=1.4 w=1 l=0.2
X20 VGND.t258 a_14348_27710.t16 a_14730_30630.t6 VGND.t257 sky130_fd_pr__pfet_01v8 ad=0.6 pd=3.4 as=0.6 ps=3.4 w=3 l=0.5
X21 a_14348_27710.t7 VGND.t335 VDPWR.t208 VDPWR.t207 sky130_fd_pr__nfet_01v8 ad=1 pd=5.8 as=1.01 ps=6.15 w=2.5 l=5
X22 a_14348_27710.t17 VGND.t256 sky130_fd_pr__cap_mim_m3_1 l=2 w=2
X23 a_26420_26340.t0 a_26390_26310.t3 a_26420_26230.t0 VDPWR.t317 sky130_fd_pr__nfet_01v8 ad=0.2 pd=1.8 as=0.1 ps=0.9 w=0.5 l=0.15
X24 a_14730_30630.t5 a_14348_27710.t18 VGND.t255 VGND.t254 sky130_fd_pr__pfet_01v8 ad=0.6 pd=3.4 as=0.6 ps=3.4 w=3 l=0.5
X25 a_19190_29290.t15 a_14730_30630.t8 a_18180_28430.t10 VDPWR.t171 sky130_fd_pr__nfet_01v8 ad=0.2 pd=1.8 as=0.1 ps=0.9 w=0.5 l=0.2
X26 VGND.t253 a_14348_27710.t19 a_14990_33500.t5 VGND.t252 sky130_fd_pr__pfet_01v8 ad=0.6 pd=3.4 as=0.6 ps=3.4 w=3 l=0.5
X27 VDPWR.t287 VDPWR.t284 VDPWR.t286 VDPWR.t285 sky130_fd_pr__nfet_01v8 ad=0.5 pd=2.5 as=0 ps=0 w=2 l=0.6
X28 a_26310_26200.t2 a_26390_27520.t2 VDPWR.t149 VDPWR.t148 sky130_fd_pr__nfet_01v8 ad=0.2 pd=1.8 as=0.2 ps=1.8 w=0.5 l=0.15
X29 a_24310_31390.t0 a_24280_30570.t3 VGND.t302 VGND.t95 sky130_fd_pr__pfet_01v8 ad=0.4 pd=2.4 as=0.8 ps=4.8 w=2 l=0.15
X30 a_14990_33500.t4 a_14348_27710.t20 VGND.t251 VGND.t250 sky130_fd_pr__pfet_01v8 ad=0.6 pd=3.4 as=0.6 ps=3.4 w=3 l=0.5
X31 a_24280_31090.t1 a_23100_30050.t3 VDPWR.t44 VDPWR.t43 sky130_fd_pr__nfet_01v8 ad=0.2 pd=1.4 as=0.4 ps=2.8 w=1 l=0.15
X32 VGND.t191 a_24280_31090.t3 a_24310_31010.t0 VGND.t58 sky130_fd_pr__pfet_01v8 ad=0.8 pd=4.8 as=0.4 ps=2.4 w=2 l=0.15
X33 VDPWR.t48 a_26390_26310.t4 a_26390_28180.t2 VDPWR.t47 sky130_fd_pr__nfet_01v8 ad=0.1 pd=0.9 as=0.1 ps=0.9 w=0.5 l=0.15
X34 a_25860_21760.t0 a_19910_24460.t8 VDPWR.t121 VDPWR.t36 sky130_fd_pr__nfet_01v8 ad=0.4 pd=2.8 as=0.4 ps=2.8 w=1 l=0.15
X35 a_19940_24490.t1 a_19910_24460.t9 a_19250_24340.t0 VDPWR.t7 sky130_fd_pr__nfet_01v8 ad=0.125 pd=1 as=0.125 ps=1 w=0.5 l=0.15
X36 VGND.t25 a_23100_29610.t3 a_23100_29280.t0 VGND.t24 sky130_fd_pr__pfet_01v8 ad=0.8 pd=4.8 as=0.8 ps=4.8 w=2 l=0.15
X37 a_22190_29430.t17 a_14558_34050.t10 VGND.t19 VGND.t18 sky130_fd_pr__pfet_01v8 ad=0.2 pd=1.4 as=0.2 ps=1.4 w=1 l=0.15
X38 VDPWR.t305 a_17884_25190.t10 a_19250_24340.t12 VDPWR.t1 sky130_fd_pr__nfet_01v8 ad=0.3125 pd=1.75 as=0.3125 ps=1.75 w=1.25 l=0.5
X39 VGND.t90 a_19190_29290.t18 a_19190_29050.t5 VGND.t89 sky130_fd_pr__pfet_01v8 ad=0.2 pd=1.4 as=0.2 ps=1.4 w=1 l=0.2
X40 VDPWR.t63 a_23100_30570.t4 a_23100_30980.t2 VDPWR.t62 sky130_fd_pr__nfet_01v8 ad=0.4 pd=2.8 as=0.2 ps=1.4 w=1 l=0.15
X41 w_23460_23020.t7 a_23130_27670.t3 a_19910_24460.t6 w_23460_23020.t6 sky130_fd_pr__pfet_01v8 ad=0.5 pd=2.5 as=0.5 ps=2.5 w=2 l=0.6
X42 a_19190_29290.t11 a_19190_29290.t10 VGND.t29 VGND.t28 sky130_fd_pr__pfet_01v8 ad=0.2 pd=1.4 as=0.2 ps=1.4 w=1 l=0.2
X43 VGND.t73 a_19190_31610.t18 a_19190_31850.t8 VGND.t72 sky130_fd_pr__pfet_01v8 ad=0.2 pd=1.4 as=0.2 ps=1.4 w=1 l=0.2
X44 a_14348_27710.t21 VGND.t247 sky130_fd_pr__cap_mim_m3_1 l=2 w=2
X45 a_26300_22300.t1 a_26300_23070.t4 VDPWR.t93 VDPWR.t92 sky130_fd_pr__nfet_01v8 ad=0.2 pd=1.8 as=0.1 ps=0.9 w=0.5 l=0.15
X46 VDPWR.t124 a_26390_27520.t3 a_26420_27440.t0 VDPWR.t123 sky130_fd_pr__nfet_01v8 ad=0.2 pd=1.8 as=0.1 ps=0.9 w=0.5 l=0.15
X47 VDPWR.t65 a_26310_26200.t3 a_26390_29930.t2 VDPWR.t64 sky130_fd_pr__nfet_01v8 ad=0.1 pd=0.9 as=0.1 ps=0.9 w=0.5 l=0.15
X48 a_14348_27710.t22 VGND.t246 sky130_fd_pr__cap_mim_m3_1 l=2 w=2
X49 a_20480_25210.t8 a_20480_25210.t6 a_20480_25210.t7 w_20440_23530.t27 sky130_fd_pr__pfet_01v8 ad=0.5 pd=3 as=0 ps=0 w=1 l=0.15
X50 VGND.t27 a_14558_34050.t11 a_14140_28370.t12 VGND.t26 sky130_fd_pr__pfet_01v8 ad=0.2 pd=1.4 as=0.2 ps=1.4 w=1 l=0.15
X51 a_26310_26200.t1 a_26390_27520.t4 VGND.t134 VGND.t133 sky130_fd_pr__pfet_01v8 ad=0.1 pd=0.9 as=0.2 ps=1.8 w=0.5 l=0.15
X52 a_26390_31270.t2 a_26310_26200.t4 VDPWR.t138 VDPWR.t137 sky130_fd_pr__nfet_01v8 ad=0.1 pd=0.9 as=0.1 ps=0.9 w=0.5 l=0.15
X53 VDPWR.t115 a_19040_22530.t5 a_19940_23090.t9 VDPWR.t114 sky130_fd_pr__nfet_01v8 ad=0.125 pd=1 as=0.125 ps=1 w=0.5 l=0.15
X54 VDPWR.t235 VDPWR.t279 a_13370_29270.t8 sky130_fd_pr__pnp_05v5_W3p40L3p40
**devattr s=462400,2720
X55 a_24280_31990.t1 a_26320_28790.t3 VGND.t305 VGND.t304 sky130_fd_pr__pfet_01v8 ad=0.2 pd=1.8 as=0.2 ps=1.8 w=0.5 l=0.15
X56 VDPWR.t21 a_23100_29610.t4 a_23100_29280.t1 VDPWR.t20 sky130_fd_pr__nfet_01v8 ad=0.4 pd=2.8 as=0.4 ps=2.8 w=1 l=0.15
X57 VGND.t75 a_19190_31610.t19 a_19190_31850.t7 VGND.t74 sky130_fd_pr__pfet_01v8 ad=0.2 pd=1.4 as=0.2 ps=1.4 w=1 l=0.2
X58 a_26640_21160.t2 VDPWR.t318 VGND.t6 VGND.t5 sky130_fd_pr__pfet_01v8 ad=0.4 pd=2.8 as=0.4 ps=2.8 w=1 l=0.15
X59 a_19910_24200.t1 a_19940_23090.t10 w_23460_23020.t5 w_23460_23020.t4 sky130_fd_pr__pfet_01v8 ad=0.5 pd=2.5 as=0.5 ps=2.5 w=2 l=0.6
X60 a_22190_29430.t4 a_24280_27770.t2 a_24310_27670.t1 VGND.t108 sky130_fd_pr__pfet_01v8 ad=1 pd=5 as=1 ps=5 w=2 l=0.15
X61 a_24280_29730.t0 a_23130_29200.t2 VGND.t65 VGND.t64 sky130_fd_pr__pfet_01v8 ad=0.8 pd=4.8 as=0.8 ps=4.8 w=2 l=0.15
X62 a_26300_23600.t1 a_26300_24370.t4 VDPWR.t23 VDPWR.t22 sky130_fd_pr__nfet_01v8 ad=0.2 pd=1.8 as=0.1 ps=0.9 w=0.5 l=0.15
X63 a_14558_34050.t8 a_19190_31850.t11 VGND.t49 VGND.t48 sky130_fd_pr__pfet_01v8 ad=0.2 pd=1.4 as=0.2 ps=1.4 w=1 l=0.2
X64 VDPWR.t67 a_26390_30500.t2 a_26420_30420.t1 VDPWR.t66 sky130_fd_pr__nfet_01v8 ad=0.1 pd=0.9 as=0.1 ps=0.9 w=0.5 l=0.15
X65 VDPWR.t206 VGND.t336 a_14558_34050.t2 VDPWR.t205 sky130_fd_pr__nfet_01v8 ad=1 pd=5.8 as=1 ps=5.8 w=2.5 l=5
X66 a_14348_27710.t23 VGND.t245 sky130_fd_pr__cap_mim_m3_1 l=2 w=2
X67 VGND.t294 VGND.t292 a_14348_27710.t4 VGND.t293 sky130_fd_pr__pfet_01v8 ad=0.45 pd=2.9 as=0.2 ps=1.4 w=1 l=0.15
X68 a_25860_21760.t1 ua[1].t2 a_26400_21130.t0 VDPWR.t36 sky130_fd_pr__nfet_01v8 ad=0.2 pd=1.8 as=0.2 ps=1.8 w=0.5 l=0.15
X69 a_26420_27220.t1 a_26390_27520.t5 VGND.t47 VGND.t46 sky130_fd_pr__pfet_01v8 ad=0.2 pd=1.8 as=0.1 ps=0.9 w=0.5 l=0.15
X70 w_20440_23530.t9 a_19940_24490.t4 a_19940_24490.t5 w_20440_23530.t8 sky130_fd_pr__pfet_01v8 ad=0.25 pd=1.5 as=0.25 ps=1.5 w=1 l=0.15
X71 a_26390_32300.t3 a_26320_28790.t4 VDPWR.t191 VDPWR.t190 sky130_fd_pr__nfet_01v8 ad=0.1 pd=0.9 as=0.1 ps=0.9 w=0.5 l=0.15
X72 a_26320_28790.t0 a_26310_26200.t5 VGND.t21 VGND.t20 sky130_fd_pr__pfet_01v8 ad=0.2 pd=1.8 as=0.1 ps=0.9 w=0.5 l=0.15
X73 VGND.t121 ua[0].t0 a_23550_31910.t0 VGND.t62 sky130_fd_pr__pfet_01v8 ad=0.8 pd=4.8 as=0.4 ps=2.4 w=2 l=0.15
X74 a_14348_27710.t9 a_19190_29050.t13 VGND.t207 VGND.t206 sky130_fd_pr__pfet_01v8 ad=0.2 pd=1.4 as=0.2 ps=1.4 w=1 l=0.2
X75 VGND.t322 a_23100_29280.t2 a_23130_29200.t0 VGND.t321 sky130_fd_pr__pfet_01v8 ad=0.8 pd=4.8 as=0.8 ps=4.8 w=2 l=0.15
X76 a_19190_31850.t2 a_14140_28370.t13 a_18180_33430.t6 VDPWR.t113 sky130_fd_pr__nfet_01v8 ad=0.1 pd=0.9 as=0.1 ps=0.9 w=0.5 l=0.2
X77 a_17884_25798.t8 a_17884_25190.t8 VDPWR.t303 sky130_fd_pr__res_xhigh_po_5p73 l=1
X78 VGND.t154 a_19190_29290.t8 a_19190_29290.t9 VGND.t153 sky130_fd_pr__pfet_01v8 ad=0.2 pd=1.4 as=0.2 ps=1.4 w=1 l=0.2
X79 a_26300_24900.t1 a_26300_25670.t4 VDPWR.t233 VDPWR.t232 sky130_fd_pr__nfet_01v8 ad=0.2 pd=1.8 as=0.1 ps=0.9 w=0.5 l=0.15
X80 a_24280_30980.t0 a_24280_30570.t4 a_24310_30490.t0 VGND.t190 sky130_fd_pr__pfet_01v8 ad=0.8 pd=4.8 as=0.4 ps=2.4 w=2 l=0.15
X81 a_26640_20560.t0 a_26400_20530.t2 ua[1].t0 VGND.t16 sky130_fd_pr__pfet_01v8 ad=0.4 pd=2.8 as=0.4 ps=2.8 w=1 l=0.15
X82 a_14348_27710.t24 VGND.t244 sky130_fd_pr__cap_mim_m3_1 l=2 w=2
X83 a_22190_29430.t16 a_14558_34050.t12 VGND.t195 VGND.t194 sky130_fd_pr__pfet_01v8 ad=0.2 pd=1.4 as=0.2 ps=1.4 w=1 l=0.15
X84 VDPWR.t283 VDPWR.t280 VDPWR.t282 VDPWR.t281 sky130_fd_pr__nfet_01v8 ad=0.25 pd=2 as=0 ps=0 w=0.5 l=0.15
X85 a_26740_30530.t0 a_26390_30500.t3 VGND.t67 VGND.t66 sky130_fd_pr__pfet_01v8 ad=0.1 pd=0.9 as=0.1 ps=0.9 w=0.5 l=0.15
X86 a_17884_25798.t7 a_17884_25798.t6 w_20440_23530.t15 w_20440_23530.t14 sky130_fd_pr__pfet_01v8 ad=0.625 pd=3 as=0.625 ps=3 w=2.5 l=0.5
X87 a_23100_30460.t1 a_24280_30060.t3 VDPWR.t111 VDPWR.t110 sky130_fd_pr__nfet_01v8 ad=0.4 pd=2.8 as=0.4 ps=2.8 w=1 l=0.15
X88 a_14140_28370.t2 VGND.t289 VGND.t291 VGND.t290 sky130_fd_pr__pfet_01v8 ad=0.2 pd=1.4 as=0.4 ps=2.8 w=1 l=0.15
X89 VDPWR.t278 VDPWR.t276 VDPWR.t277 VDPWR.t7 sky130_fd_pr__nfet_01v8 ad=0.125 pd=1 as=0 ps=0 w=0.5 l=0.15
X90 VGND.t307 a_23100_30050.t4 a_23100_29610.t0 VGND.t306 sky130_fd_pr__pfet_01v8 ad=0.805 pd=5 as=0.4 ps=2.4 w=2 l=0.15
X91 VDPWR.t293 ua[0].t1 a_23020_31090.t0 VDPWR.t292 sky130_fd_pr__nfet_01v8 ad=0.4 pd=2.8 as=0.2 ps=1.4 w=1 l=0.15
X92 a_19190_29050.t14 a_13532_27710.t19 sky130_fd_pr__cap_mim_m3_1 l=2 w=2
X93 w_23460_23020.t21 w_23460_23020.t18 w_23460_23020.t20 w_23460_23020.t19 sky130_fd_pr__pfet_01v8 ad=0.5 pd=2.5 as=0 ps=0 w=2 l=0.6
X94 a_19190_31610.t15 a_19190_31610.t14 VGND.t110 VGND.t109 sky130_fd_pr__pfet_01v8 ad=0.2 pd=1.4 as=0.2 ps=1.4 w=1 l=0.2
X95 VDPWR.t79 a_23100_29280.t3 a_23130_29200.t1 VDPWR.t78 sky130_fd_pr__nfet_01v8 ad=0.4 pd=2.8 as=0.4 ps=2.8 w=1 l=0.15
X96 VDPWR.t51 ua[1].t3 a_26300_22410.t2 VDPWR.t50 sky130_fd_pr__nfet_01v8 ad=0.1 pd=0.9 as=0.2 ps=1.8 w=0.5 l=0.15
X97 VDPWR.t95 a_26390_26310.t5 a_26390_26970.t3 VDPWR.t94 sky130_fd_pr__nfet_01v8 ad=0.1 pd=0.9 as=0.2 ps=1.8 w=0.5 l=0.15
X98 VGND.t326 a_19190_31850.t12 a_14558_34050.t7 VGND.t325 sky130_fd_pr__pfet_01v8 ad=0.2 pd=1.4 as=0.2 ps=1.4 w=1 l=0.2
X99 a_14348_27710.t25 VGND.t243 sky130_fd_pr__cap_mim_m3_1 l=2 w=2
X100 a_19910_24460.t0 a_25350_8708.t0 VDPWR.t9 sky130_fd_pr__res_xhigh_po_0p35 l=7.52
X101 a_19190_29050.t15 a_13532_27710.t18 sky130_fd_pr__cap_mim_m3_1 l=2 w=2
X102 VDPWR.t53 a_24280_27770.t3 a_24310_27670.t2 VDPWR.t52 sky130_fd_pr__nfet_01v8 ad=0.5 pd=3 as=0.5 ps=3 w=1 l=0.15
X103 a_18180_28430.t1 a_14990_33500.t6 a_19190_29050.t1 VDPWR.t16 sky130_fd_pr__nfet_01v8 ad=0.1 pd=0.9 as=0.1 ps=0.9 w=0.5 l=0.2
X104 w_20440_23530.t61 w_20440_23530.t58 w_20440_23530.t60 w_20440_23530.t59 sky130_fd_pr__pfet_01v8 ad=0.625 pd=3 as=0 ps=0 w=2.5 l=0.5
X105 a_23100_30050.t0 a_24280_30570.t5 VDPWR.t88 VDPWR.t87 sky130_fd_pr__nfet_01v8 ad=0.2 pd=1.4 as=0.4 ps=2.8 w=1 l=0.15
X106 VGND.t288 VGND.t286 a_14140_28370.t1 VGND.t287 sky130_fd_pr__pfet_01v8 ad=0.4 pd=2.8 as=0.2 ps=1.4 w=1 l=0.15
X107 a_19190_31850.t13 a_13742_34050.t19 sky130_fd_pr__cap_mim_m3_1 l=2 w=2
X108 a_23100_29610.t1 a_23020_29890.t3 VGND.t53 VGND.t52 sky130_fd_pr__pfet_01v8 ad=0.4 pd=2.4 as=0.8 ps=4.8 w=2 l=0.15
X109 VDPWR.t13 a_24280_31090.t4 a_24280_30570.t0 VDPWR.t12 sky130_fd_pr__nfet_01v8 ad=0.4 pd=2.8 as=0.2 ps=1.4 w=1 l=0.15
X110 a_19190_29050.t16 a_13532_27710.t17 sky130_fd_pr__cap_mim_m3_1 l=2 w=2
X111 VGND.t205 a_19190_29050.t17 a_14348_27710.t8 VGND.t204 sky130_fd_pr__pfet_01v8 ad=0.2 pd=1.4 as=0.2 ps=1.4 w=1 l=0.2
X112 VDPWR.t225 a_23100_30050.t5 a_23130_29970.t0 VDPWR.t224 sky130_fd_pr__nfet_01v8 ad=0.4 pd=2.8 as=0.2 ps=1.4 w=1 l=0.15
X113 a_18180_33430.t9 a_14140_28370.t14 a_19190_31850.t10 VDPWR.t302 sky130_fd_pr__nfet_01v8 ad=0.1 pd=0.9 as=0.1 ps=0.9 w=0.5 l=0.2
X114 VDPWR.t6 a_26300_22300.t2 a_26300_23710.t2 VDPWR.t5 sky130_fd_pr__nfet_01v8 ad=0.1 pd=0.9 as=0.2 ps=1.8 w=0.5 l=0.15
X115 a_19190_29050.t9 a_19190_29290.t19 VGND.t163 VGND.t162 sky130_fd_pr__pfet_01v8 ad=0.2 pd=1.4 as=0.2 ps=1.4 w=1 l=0.2
X116 a_14348_27710.t26 VGND.t242 sky130_fd_pr__cap_mim_m3_1 l=2 w=2
X117 VDPWR.t77 a_26390_26310.t6 a_26390_28180.t1 VDPWR.t76 sky130_fd_pr__nfet_01v8 ad=0.1 pd=0.9 as=0.2 ps=1.8 w=0.5 l=0.15
X118 a_18180_28430.t3 a_14990_33500.t7 a_19190_29050.t8 VDPWR.t142 sky130_fd_pr__nfet_01v8 ad=0.1 pd=0.9 as=0.2 ps=1.8 w=0.5 l=0.2
X119 a_13532_33810.t0 a_14610_33690.t1 VDPWR.t189 sky130_fd_pr__res_xhigh_po_0p35 l=3.35
X120 a_19190_29050.t18 a_13532_27710.t16 sky130_fd_pr__cap_mim_m3_1 l=2 w=2
X121 a_19910_25340.t3 a_19910_25340.t2 VDPWR.t41 VDPWR.t7 sky130_fd_pr__nfet_01v8 ad=0.125 pd=1 as=0.125 ps=1 w=0.5 l=0.15
X122 a_19190_31850.t14 a_13742_34050.t18 sky130_fd_pr__cap_mim_m3_1 l=2 w=2
X123 a_19040_22530.t3 a_19910_24200.t7 a_20480_25210.t9 w_20440_23530.t28 sky130_fd_pr__pfet_01v8 ad=0.25 pd=1.5 as=0.25 ps=1.5 w=1 l=0.15
X124 a_19910_24460.t5 a_23130_27670.t4 w_23460_23020.t27 w_23460_23020.t26 sky130_fd_pr__pfet_01v8 ad=0.5 pd=2.5 as=0.5 ps=2.5 w=2 l=0.6
X125 a_26300_23070.t2 a_26300_22410.t3 VDPWR.t188 VDPWR.t187 sky130_fd_pr__nfet_01v8 ad=0.1 pd=0.9 as=0.1 ps=0.9 w=0.5 l=0.15
X126 a_23130_29970.t1 a_23020_29890.t4 a_23100_29610.t2 VDPWR.t70 sky130_fd_pr__nfet_01v8 ad=0.2 pd=1.4 as=0.4 ps=2.8 w=1 l=0.15
X127 a_26640_21760.t2 VDPWR.t319 VGND.t8 VGND.t7 sky130_fd_pr__pfet_01v8 ad=0.4 pd=2.8 as=0.4 ps=2.8 w=1 l=0.15
X128 a_19190_31850.t15 a_13742_34050.t17 sky130_fd_pr__cap_mim_m3_1 l=2 w=2
X129 a_17884_25190.t7 a_17884_25190.t6 VDPWR.t97 VDPWR.t1 sky130_fd_pr__nfet_01v8 ad=0.3125 pd=1.75 as=0.3125 ps=1.75 w=1.25 l=0.5
X130 VGND.t12 a_19190_31610.t12 a_19190_31610.t13 VGND.t11 sky130_fd_pr__pfet_01v8 ad=0.2 pd=1.4 as=0.2 ps=1.4 w=1 l=0.2
X131 VDPWR.t311 a_26300_23600.t2 a_26300_25010.t2 VDPWR.t310 sky130_fd_pr__nfet_01v8 ad=0.1 pd=0.9 as=0.2 ps=1.8 w=0.5 l=0.15
X132 a_24280_30060.t1 a_24280_29730.t2 VGND.t329 VGND.t328 sky130_fd_pr__pfet_01v8 ad=0.8 pd=4.8 as=0.8 ps=4.8 w=2 l=0.15
X133 VGND.t63 a_24280_31990.t2 a_24310_31910.t1 VGND.t62 sky130_fd_pr__pfet_01v8 ad=0.8 pd=4.8 as=0.4 ps=2.4 w=2 l=0.15
X134 a_19190_29050.t19 a_13532_27710.t15 sky130_fd_pr__cap_mim_m3_1 l=2 w=2
X135 a_19190_31850.t6 a_19190_31610.t20 VGND.t179 VGND.t178 sky130_fd_pr__pfet_01v8 ad=0.2 pd=1.4 as=0.2 ps=1.4 w=1 l=0.2
X136 a_19910_24460.t2 a_24310_27670.t3 VDPWR.t180 VDPWR.t179 sky130_fd_pr__nfet_01v8 ad=0.5 pd=2.5 as=0.5 ps=2.5 w=2 l=0.6
X137 a_22190_29430.t5 a_24310_27960.t3 a_24310_27670.t0 VDPWR.t153 sky130_fd_pr__nfet_01v8 ad=0.5 pd=3 as=0.5 ps=3 w=1 l=0.15
X138 a_24280_29730.t1 a_23130_29200.t3 VDPWR.t182 VDPWR.t181 sky130_fd_pr__nfet_01v8 ad=0.4 pd=2.8 as=0.4 ps=2.8 w=1 l=0.15
X139 VGND.t94 a_26420_27220.t3 a_26390_28180.t3 VGND.t93 sky130_fd_pr__pfet_01v8 ad=0.1 pd=0.9 as=0.2 ps=1.8 w=0.5 l=0.15
X140 a_26390_29240.t2 a_26320_28790.t5 VDPWR.t168 VDPWR.t167 sky130_fd_pr__nfet_01v8 ad=0.2 pd=1.8 as=0.2 ps=1.8 w=0.5 l=0.15
X141 a_19250_24340.t9 a_19910_24200.t8 a_19940_24230.t4 VDPWR.t7 sky130_fd_pr__nfet_01v8 ad=0.125 pd=1 as=0.125 ps=1 w=0.5 l=0.15
X142 w_20440_23530.t57 w_20440_23530.t54 w_20440_23530.t56 w_20440_23530.t55 sky130_fd_pr__pfet_01v8 ad=0.25 pd=1.5 as=0 ps=0 w=1 l=0.15
X143 a_22190_29430.t15 a_14558_34050.t13 VGND.t132 VGND.t131 sky130_fd_pr__pfet_01v8 ad=0.2 pd=1.4 as=0.2 ps=1.4 w=1 l=0.15
X144 a_19190_29050.t20 a_13532_27710.t14 sky130_fd_pr__cap_mim_m3_1 l=2 w=2
X145 a_14140_28370.t11 a_14558_34050.t14 VGND.t148 VGND.t147 sky130_fd_pr__pfet_01v8 ad=0.2 pd=1.4 as=0.2 ps=1.4 w=1 l=0.15
X146 a_19190_31850.t16 a_13742_34050.t16 sky130_fd_pr__cap_mim_m3_1 l=2 w=2
X147 VDPWR.t275 VDPWR.t272 VDPWR.t274 VDPWR.t273 sky130_fd_pr__nfet_01v8 ad=0.3125 pd=1.75 as=0 ps=0 w=1.25 l=0.5
X148 a_23020_29890.t0 a_23020_31090.t3 a_23550_31390.t0 VGND.t2 sky130_fd_pr__pfet_01v8 ad=0.8 pd=4.8 as=0.4 ps=2.4 w=2 l=0.15
X149 a_13370_29270.t0 a_14990_33500.t1 VDPWR.t135 sky130_fd_pr__res_xhigh_po_0p35 l=2.3
X150 a_19190_29290.t7 a_19190_29290.t6 VGND.t23 VGND.t22 sky130_fd_pr__pfet_01v8 ad=0.2 pd=1.4 as=0.2 ps=1.4 w=1 l=0.2
X151 a_18180_28430.t0 a_14990_33500.t8 a_19190_29050.t0 VDPWR.t0 sky130_fd_pr__nfet_01v8 ad=0.1 pd=0.9 as=0.1 ps=0.9 w=0.5 l=0.2
X152 a_19190_31850.t5 a_19190_31610.t21 VGND.t181 VGND.t180 sky130_fd_pr__pfet_01v8 ad=0.2 pd=1.4 as=0.2 ps=1.4 w=1 l=0.2
X153 a_19190_29050.t21 a_13532_27710.t13 sky130_fd_pr__cap_mim_m3_1 l=2 w=2
X154 a_26420_27330.t0 a_26390_26310.t7 a_26420_27220.t0 VDPWR.t290 sky130_fd_pr__nfet_01v8 ad=0.1 pd=0.9 as=0.2 ps=1.8 w=0.5 l=0.15
X155 VGND.t285 VGND.t283 a_14610_33930.t6 VGND.t284 sky130_fd_pr__pfet_01v8 ad=1.2 pd=6.8 as=0.6 ps=3.4 w=3 l=0.5
X156 VDPWR.t295 a_26310_26200.t6 a_26390_29930.t1 VDPWR.t294 sky130_fd_pr__nfet_01v8 ad=0.1 pd=0.9 as=0.2 ps=1.8 w=0.5 l=0.15
X157 VDPWR.t119 a_22190_29430.t18 a_19910_24200.t2 VDPWR.t118 sky130_fd_pr__nfet_01v8 ad=0.5 pd=2.5 as=0.5 ps=2.5 w=2 l=0.6
X158 a_19190_29290.t16 a_14730_30630.t9 a_18180_28430.t9 VDPWR.t172 sky130_fd_pr__nfet_01v8 ad=0.1 pd=0.9 as=0.1 ps=0.9 w=0.5 l=0.2
X159 a_13532_33810.t1 a_14610_33930.t0 VDPWR.t192 sky130_fd_pr__res_xhigh_po_0p35 l=3.35
X160 a_14610_33930.t4 a_14348_27710.t27 VGND.t249 VGND.t248 sky130_fd_pr__pfet_01v8 ad=0.6 pd=3.4 as=0.6 ps=3.4 w=3 l=0.5
X161 a_18180_33430.t1 a_14610_33930.t7 a_19190_31610.t1 VDPWR.t71 sky130_fd_pr__nfet_01v8 ad=0.1 pd=0.9 as=0.2 ps=1.8 w=0.5 l=0.2
X162 a_20480_25210.t1 a_19910_24460.t10 a_19910_25340.t1 w_20440_23530.t5 sky130_fd_pr__pfet_01v8 ad=0.25 pd=1.5 as=0.25 ps=1.5 w=1 l=0.15
X163 VGND.t241 a_14348_27710.t28 a_17540_31010.t4 VGND.t240 sky130_fd_pr__pfet_01v8 ad=0.6 pd=3.4 as=0.6 ps=3.4 w=3 l=0.5
X164 a_26420_29270.t1 a_26390_29240.t3 VDPWR.t59 VDPWR.t58 sky130_fd_pr__nfet_01v8 ad=0.1 pd=0.9 as=0.2 ps=1.8 w=0.5 l=0.15
X165 VGND.t57 a_14558_34050.t15 a_22190_29430.t14 VGND.t56 sky130_fd_pr__pfet_01v8 ad=0.2 pd=1.4 as=0.2 ps=1.4 w=1 l=0.15
X166 VDPWR.t161 a_24280_30570.t6 a_24280_30980.t1 VDPWR.t160 sky130_fd_pr__nfet_01v8 ad=0.4 pd=2.8 as=0.2 ps=1.4 w=1 l=0.15
X167 VGND.t185 a_14558_34050.t16 a_14140_28370.t10 VGND.t184 sky130_fd_pr__pfet_01v8 ad=0.2 pd=1.4 as=0.2 ps=1.4 w=1 l=0.15
X168 a_14348_27710.t29 VGND.t220 sky130_fd_pr__cap_mim_m3_1 l=2 w=2
X169 a_19940_23090.t8 a_19040_22530.t6 VDPWR.t170 VDPWR.t169 sky130_fd_pr__nfet_01v8 ad=0.125 pd=1 as=0.125 ps=1 w=0.5 l=0.15
X170 VGND.t189 a_26320_28790.t6 a_26390_29240.t1 VGND.t188 sky130_fd_pr__pfet_01v8 ad=0.1 pd=0.9 as=0.2 ps=1.8 w=0.5 l=0.15
X171 a_26330_22330.t0 a_26300_22300.t3 VDPWR.t176 VDPWR.t175 sky130_fd_pr__nfet_01v8 ad=0.1 pd=0.9 as=0.1 ps=0.9 w=0.5 l=0.15
X172 VDPWR.t27 a_23020_31090.t4 a_23020_29890.t1 VDPWR.t26 sky130_fd_pr__nfet_01v8 ad=0.4 pd=2.8 as=0.2 ps=1.4 w=1 l=0.15
X173 w_23460_23020.t9 a_19940_23090.t11 a_19910_24200.t3 w_23460_23020.t8 sky130_fd_pr__pfet_01v8 ad=0.5 pd=2.5 as=0.5 ps=2.5 w=2 l=0.6
X174 a_14558_34050.t6 a_19190_31850.t17 VGND.t161 VGND.t160 sky130_fd_pr__pfet_01v8 ad=0.2 pd=1.4 as=0.2 ps=1.4 w=1 l=0.2
X175 a_19190_29050.t22 a_13532_27710.t12 sky130_fd_pr__cap_mim_m3_1 l=2 w=2
X176 a_26390_27410.t1 a_26390_26970.t4 VDPWR.t106 VDPWR.t105 sky130_fd_pr__nfet_01v8 ad=0.2 pd=1.8 as=0.1 ps=0.9 w=0.5 l=0.15
X177 a_26300_24370.t2 a_26300_23710.t3 VDPWR.t55 VDPWR.t54 sky130_fd_pr__nfet_01v8 ad=0.1 pd=0.9 as=0.1 ps=0.9 w=0.5 l=0.15
X178 a_18180_33430.t2 a_14140_28370.t15 a_19190_31850.t0 VDPWR.t80 sky130_fd_pr__nfet_01v8 ad=0.1 pd=0.9 as=0.1 ps=0.9 w=0.5 l=0.2
X179 a_14730_30630.t2 a_17540_31010.t6 a_14348_27710.t6 VGND.t155 sky130_fd_pr__pfet_01v8 ad=0.2 pd=1.4 as=0.2 ps=1.4 w=1 l=0.15
X180 VDPWR.t320 a_25350_8708.t1 sky130_fd_pr__cap_mim_m3_1 l=69.8 w=60
X181 a_26640_21160.t0 a_26400_21130.t2 a_26400_20530.t0 VGND.t5 sky130_fd_pr__pfet_01v8 ad=0.4 pd=2.8 as=0.4 ps=2.8 w=1 l=0.15
X182 a_19250_24340.t7 a_19250_24340.t5 a_19250_24340.t6 VDPWR.t7 sky130_fd_pr__nfet_01v8 ad=0.25 pd=2 as=0 ps=0 w=0.5 l=0.15
X183 a_19190_31610.t0 a_14610_33930.t8 a_18180_33430.t0 VDPWR.t60 sky130_fd_pr__nfet_01v8 ad=0.1 pd=0.9 as=0.1 ps=0.9 w=0.5 l=0.2
X184 a_19940_24490.t3 a_19940_24490.t2 w_20440_23530.t31 w_20440_23530.t30 sky130_fd_pr__pfet_01v8 ad=0.25 pd=1.5 as=0.25 ps=1.5 w=1 l=0.15
X185 a_14348_27710.t30 VGND.t219 sky130_fd_pr__cap_mim_m3_1 l=2 w=2
X186 VGND.t107 a_26390_29240.t4 a_26420_29380.t1 VGND.t106 sky130_fd_pr__pfet_01v8 ad=0.1 pd=0.9 as=0.2 ps=1.8 w=0.5 l=0.15
X187 a_19190_31850.t18 a_13742_34050.t15 sky130_fd_pr__cap_mim_m3_1 l=2 w=2
X188 w_20440_23530.t35 a_17884_25798.t10 a_20480_25210.t12 w_20440_23530.t34 sky130_fd_pr__pfet_01v8 ad=0.625 pd=3 as=0.625 ps=3 w=2.5 l=0.5
X189 a_26330_23630.t1 a_26300_23600.t3 VDPWR.t102 VDPWR.t101 sky130_fd_pr__nfet_01v8 ad=0.1 pd=0.9 as=0.1 ps=0.9 w=0.5 l=0.15
X190 VDPWR.t235 VDPWR.t242 a_13370_29270.t7 sky130_fd_pr__pnp_05v5_W3p40L3p40
**devattr s=462400,2720
X191 VGND.t159 a_26300_22300.t4 a_26330_22440.t0 VGND.t158 sky130_fd_pr__pfet_01v8 ad=0.1 pd=0.9 as=0.2 ps=1.8 w=0.5 l=0.15
X192 a_19190_29290.t13 a_14730_30630.t10 a_18180_28430.t8 VDPWR.t296 sky130_fd_pr__nfet_01v8 ad=0.1 pd=0.9 as=0.1 ps=0.9 w=0.5 l=0.2
X193 a_26300_25670.t3 a_26300_25010.t4 VDPWR.t215 VDPWR.t214 sky130_fd_pr__nfet_01v8 ad=0.1 pd=0.9 as=0.1 ps=0.9 w=0.5 l=0.15
X194 VGND.t152 a_19190_31610.t22 a_19190_31850.t4 VGND.t151 sky130_fd_pr__pfet_01v8 ad=0.2 pd=1.4 as=0.2 ps=1.4 w=1 l=0.2
X195 VGND.t81 ua[1].t4 a_26300_22410.t1 VGND.t80 sky130_fd_pr__pfet_01v8 ad=0.1 pd=0.9 as=0.2 ps=1.8 w=0.5 l=0.15
X196 a_18180_28430.t7 a_14730_30630.t11 a_19190_29290.t14 VDPWR.t297 sky130_fd_pr__nfet_01v8 ad=0.1 pd=0.9 as=0.1 ps=0.9 w=0.5 l=0.2
X197 VDPWR.t231 a_19040_22530.t7 a_19940_23090.t7 VDPWR.t230 sky130_fd_pr__nfet_01v8 ad=0.125 pd=1 as=0.125 ps=1 w=0.5 l=0.15
X198 a_22190_29430.t7 VGND.t280 VGND.t282 VGND.t281 sky130_fd_pr__pfet_01v8 ad=0.2 pd=1.4 as=0.4 ps=2.8 w=1 l=0.15
X199 VDPWR.t156 a_14610_33690.t0 VDPWR.t155 sky130_fd_pr__res_xhigh_po_0p35 l=3.35
X200 w_20440_23530.t21 a_19940_24230.t5 a_19940_23090.t4 w_20440_23530.t20 sky130_fd_pr__pfet_01v8 ad=0.25 pd=1.5 as=0.25 ps=1.5 w=1 l=0.15
X201 VDPWR.t271 VDPWR.t268 VDPWR.t270 VDPWR.t269 sky130_fd_pr__nfet_01v8 ad=1 pd=5 as=0 ps=0 w=2 l=0.6
X202 a_17884_25798.t5 a_17884_25798.t4 w_20440_23530.t3 w_20440_23530.t2 sky130_fd_pr__pfet_01v8 ad=0.625 pd=3 as=0.625 ps=3 w=2.5 l=0.5
X203 VDPWR.t185 a_17884_25190.t11 a_19250_24340.t11 VDPWR.t1 sky130_fd_pr__nfet_01v8 ad=0.3125 pd=1.75 as=0.3125 ps=1.75 w=1.25 l=0.5
X204 VGND.t112 a_23100_27770.t3 a_23130_27960.t0 VGND.t111 sky130_fd_pr__pfet_01v8 ad=1 pd=5 as=1 ps=5 w=2 l=0.15
X205 a_26330_24930.t0 a_26300_24900.t2 VDPWR.t38 VDPWR.t37 sky130_fd_pr__nfet_01v8 ad=0.1 pd=0.9 as=0.1 ps=0.9 w=0.5 l=0.15
X206 VGND.t43 a_26300_23600.t4 a_26330_23740.t1 VGND.t42 sky130_fd_pr__pfet_01v8 ad=0.1 pd=0.9 as=0.2 ps=1.8 w=0.5 l=0.15
X207 VDPWR.t235 VDPWR.t243 a_13370_29270.t6 sky130_fd_pr__pnp_05v5_W3p40L3p40
**devattr s=462400,2720
X208 VGND.t177 a_19190_31850.t19 a_14558_34050.t5 VGND.t176 sky130_fd_pr__pfet_01v8 ad=0.2 pd=1.4 as=0.2 ps=1.4 w=1 l=0.2
X209 a_26300_22300.t0 a_26300_22410.t4 VGND.t37 VGND.t36 sky130_fd_pr__pfet_01v8 ad=0.2 pd=1.8 as=0.2 ps=1.8 w=0.5 l=0.15
X210 a_19190_31610.t16 a_14610_33930.t9 a_18180_33430.t10 VDPWR.t312 sky130_fd_pr__nfet_01v8 ad=0.1 pd=0.9 as=0.1 ps=0.9 w=0.5 l=0.2
X211 VGND.t98 a_26300_22300.t5 a_26300_23710.t1 VGND.t97 sky130_fd_pr__pfet_01v8 ad=0.1 pd=0.9 as=0.2 ps=1.8 w=0.5 l=0.15
X212 a_23100_30050.t1 a_24280_31090.t5 a_24310_31390.t1 VGND.t2 sky130_fd_pr__pfet_01v8 ad=0.8 pd=4.8 as=0.4 ps=2.4 w=2 l=0.15
X213 a_24280_30060.t0 a_24280_29730.t3 VDPWR.t100 VDPWR.t99 sky130_fd_pr__nfet_01v8 ad=0.4 pd=2.8 as=0.4 ps=2.8 w=1 l=0.15
X214 VDPWR.t178 a_24280_31990.t3 a_24280_31090.t2 VDPWR.t177 sky130_fd_pr__nfet_01v8 ad=0.4 pd=2.8 as=0.2 ps=1.4 w=1 l=0.15
X215 a_18180_33430.t4 a_14610_33930.t10 a_19190_31610.t3 VDPWR.t90 sky130_fd_pr__nfet_01v8 ad=0.1 pd=0.9 as=0.1 ps=0.9 w=0.5 l=0.2
X216 a_19940_23090.t12 a_18460_22530.t1 sky130_fd_pr__cap_mim_m3_1 l=10 w=10
X217 a_26390_27520.t1 a_26390_28180.t4 VDPWR.t166 VDPWR.t165 sky130_fd_pr__nfet_01v8 ad=0.2 pd=1.8 as=0.1 ps=0.9 w=0.5 l=0.15
X218 a_19940_23090.t13 a_21386_22530.t1 sky130_fd_pr__cap_mim_m3_1 l=10 w=10
X219 VGND.t10 a_14558_34050.t17 a_22190_29430.t13 VGND.t9 sky130_fd_pr__pfet_01v8 ad=0.2 pd=1.4 as=0.2 ps=1.4 w=1 l=0.15
X220 a_17884_25190.t5 a_17884_25190.t4 VDPWR.t139 VDPWR.t1 sky130_fd_pr__nfet_01v8 ad=0.3125 pd=1.75 as=0.3125 ps=1.75 w=1.25 l=0.5
X221 VDPWR.t229 a_23100_27770.t4 a_23130_27960.t1 VDPWR.t228 sky130_fd_pr__nfet_01v8 ad=0.5 pd=3 as=0.5 ps=3 w=1 l=0.15
X222 VGND.t279 VGND.t277 a_14558_34050.t1 VGND.t278 sky130_fd_pr__pfet_01v8 ad=0.4 pd=2.8 as=0.2 ps=1.4 w=1 l=0.2
X223 a_26300_23600.t0 a_26300_23710.t4 VGND.t129 VGND.t128 sky130_fd_pr__pfet_01v8 ad=0.2 pd=1.8 as=0.2 ps=1.8 w=0.5 l=0.15
X224 a_18180_28430.t6 a_14730_30630.t12 a_19190_29290.t12 VDPWR.t304 sky130_fd_pr__nfet_01v8 ad=0.1 pd=0.9 as=0.1 ps=0.9 w=0.5 l=0.2
X225 a_19190_31610.t11 a_19190_31610.t10 VGND.t55 VGND.t54 sky130_fd_pr__pfet_01v8 ad=0.2 pd=1.4 as=0.2 ps=1.4 w=1 l=0.2
X226 a_26390_30500.t1 a_26390_29930.t4 VDPWR.t57 VDPWR.t56 sky130_fd_pr__nfet_01v8 ad=0.2 pd=1.8 as=0.1 ps=0.9 w=0.5 l=0.15
X227 VGND.t31 a_26300_23600.t5 a_26300_25010.t1 VGND.t30 sky130_fd_pr__pfet_01v8 ad=0.1 pd=0.9 as=0.2 ps=1.8 w=0.5 l=0.15
X228 a_19190_29050.t10 a_14990_33500.t9 a_18180_28430.t4 VDPWR.t152 sky130_fd_pr__nfet_01v8 ad=0.1 pd=0.9 as=0.1 ps=0.9 w=0.5 l=0.2
X229 a_26420_31640.t1 a_24280_31990.t4 VDPWR.t141 VDPWR.t140 sky130_fd_pr__nfet_01v8 ad=0.1 pd=0.9 as=0.2 ps=1.8 w=0.5 l=0.15
X230 a_26390_29240.t0 a_26320_28790.t7 VGND.t35 VGND.t34 sky130_fd_pr__pfet_01v8 ad=0.2 pd=1.8 as=0.1 ps=0.9 w=0.5 l=0.15
X231 a_19190_29050.t23 a_13532_27710.t11 sky130_fd_pr__cap_mim_m3_1 l=2 w=2
X232 w_20440_23530.t53 w_20440_23530.t50 w_20440_23530.t52 w_20440_23530.t51 sky130_fd_pr__pfet_01v8 ad=0.5 pd=3 as=0 ps=0 w=1 l=0.15
X233 a_20480_25210.t5 a_20480_25210.t3 a_20480_25210.t4 w_20440_23530.t26 sky130_fd_pr__pfet_01v8 ad=0.25 pd=1.5 as=0 ps=0 w=1 l=0.15
X234 a_13742_34050.t20 a_14558_34050.t9 VDPWR.t291 sky130_fd_pr__res_high_po_0p35 l=2.05
X235 a_14140_28370.t9 a_14558_34050.t18 VGND.t39 VGND.t38 sky130_fd_pr__pfet_01v8 ad=0.2 pd=1.4 as=0.2 ps=1.4 w=1 l=0.15
X236 VGND.t301 a_26390_27520.t6 a_26310_26200.t0 VGND.t300 sky130_fd_pr__pfet_01v8 ad=0.2 pd=1.8 as=0.1 ps=0.9 w=0.5 l=0.15
X237 VDPWR.t35 a_26310_26200.t7 a_26390_31270.t1 VDPWR.t34 sky130_fd_pr__nfet_01v8 ad=0.1 pd=0.9 as=0.1 ps=0.9 w=0.5 l=0.15
X238 a_14348_27710.t31 VGND.t239 sky130_fd_pr__cap_mim_m3_1 l=2 w=2
X239 VGND.t84 a_23100_28450.t2 a_23100_27770.t0 VGND.t15 sky130_fd_pr__pfet_01v8 ad=1 pd=5 as=1 ps=5 w=2 l=0.15
X240 a_23550_31010.t1 a_23100_30980.t3 a_23100_30570.t1 VGND.t130 sky130_fd_pr__pfet_01v8 ad=0.4 pd=2.4 as=0.8 ps=4.8 w=2 l=0.15
X241 w_23460_23020.t1 a_23130_27670.t5 a_19910_24460.t4 w_23460_23020.t0 sky130_fd_pr__pfet_01v8 ad=0.5 pd=2.5 as=0.5 ps=2.5 w=2 l=0.6
X242 a_19940_24230.t0 a_21386_22530.t0 VDPWR.t30 sky130_fd_pr__res_xhigh_po_0p35 l=1.14
X243 a_24310_27670.t4 a_24310_27960.t0 sky130_fd_pr__cap_mim_m3_1 l=2.7 w=3.8
X244 a_26300_24900.t0 a_26300_25010.t5 VGND.t14 VGND.t13 sky130_fd_pr__pfet_01v8 ad=0.2 pd=1.8 as=0.2 ps=1.8 w=0.5 l=0.15
X245 VDPWR.t267 VDPWR.t264 VDPWR.t266 VDPWR.t265 sky130_fd_pr__nfet_01v8 ad=0.125 pd=1 as=0 ps=0 w=0.5 l=0.15
X246 a_26420_30420.t2 a_24280_31990.t5 VDPWR.t309 VDPWR.t308 sky130_fd_pr__nfet_01v8 ad=0.2 pd=1.8 as=0.1 ps=0.9 w=0.5 l=0.15
X247 a_26640_21760.t0 ua[1].t5 a_26400_21130.t1 VGND.t7 sky130_fd_pr__pfet_01v8 ad=0.4 pd=2.8 as=0.4 ps=2.8 w=1 l=0.15
X248 VDPWR.t263 VDPWR.t260 VDPWR.t262 VDPWR.t261 sky130_fd_pr__nfet_01v8 ad=0.5 pd=2.5 as=0 ps=0 w=2 l=0.6
X249 a_18180_33430.t3 a_14610_33930.t11 a_19190_31610.t2 VDPWR.t89 sky130_fd_pr__nfet_01v8 ad=0.1 pd=0.9 as=0.1 ps=0.9 w=0.5 l=0.2
X250 a_19190_29050.t24 a_13532_27710.t10 sky130_fd_pr__cap_mim_m3_1 l=2 w=2
X251 VDPWR.t69 a_26300_24900.t3 a_26390_26310.t0 VDPWR.t68 sky130_fd_pr__nfet_01v8 ad=0.1 pd=0.9 as=0.2 ps=1.8 w=0.5 l=0.15